<?xml version="1.0" encoding="UTF-8"?>

<!-- generated on 2022-08-23 10:05:19 by Eclipse SUMO netedit Version 1.10.0
<configuration xmlns:xsi="http://www.w3.org/2001/XMLSchema-instance" xsi:noNamespaceSchemaLocation="http://sumo.dlr.de/xsd/netconvertConfiguration.xsd">

    <input>
        <sumo-net-file value="map.net.xml"/>
    </input>

    <output>
        <output-file value="map.net.xml"/>
    </output>

    <processing>
        <geometry.min-radius.fix.railways value="false"/>
        <geometry.max-grade.fix value="false"/>
        <offset.disable-normalization value="true"/>
        <lefthand value="false"/>
    </processing>

    <junctions>
        <no-turnarounds value="true"/>
        <junctions.corner-detail value="5"/>
        <junctions.limit-turn-speed value="5.5"/>
        <rectangular-lane-cut value="false"/>
    </junctions>

    <pedestrian>
        <walkingareas value="false"/>
    </pedestrian>

    <report>
        <aggregate-warnings value="5"/>
    </report>

</configuration>
-->

<net version="1.9" junctionCornerDetail="5" limitTurnSpeed="5.50" xmlns:xsi="http://www.w3.org/2001/XMLSchema-instance" xsi:noNamespaceSchemaLocation="http://sumo.dlr.de/xsd/net_file.xsd">

    <location netOffset="-630882.85,-4856133.12" convBoundary="-60.00,-50.00,60.00,0.00" origBoundary="-79.371708,43.846679,-79.369237,43.847436" projParameter="+proj=utm +zone=17 +ellps=WGS84 +datum=WGS84 +units=m +no_defs"/>

    <type id="highway.bridleway" priority="1" numLanes="1" speed="2.78" allow="pedestrian" oneway="1" width="2.00"/>
    <type id="highway.bus_guideway" priority="1" numLanes="1" speed="27.78" allow="bus" oneway="1"/>
    <type id="highway.cycleway" priority="1" numLanes="1" speed="8.33" allow="bicycle" oneway="1" width="1.00"/>
    <type id="highway.footway" priority="1" numLanes="1" speed="2.78" allow="pedestrian" oneway="1" width="2.00"/>
    <type id="highway.ford" priority="1" numLanes="1" speed="2.78" allow="army" oneway="1"/>
    <type id="highway.living_street" priority="2" numLanes="1" speed="2.78" disallow="tram rail_urban rail rail_electric ship" oneway="1"/>
    <type id="highway.motorway" priority="14" numLanes="2" speed="39.44" allow="private emergency authority army vip passenger hov taxi bus coach delivery truck trailer motorcycle evehicle custom1 custom2" oneway="1"/>
    <type id="highway.motorway_link" priority="9" numLanes="1" speed="22.22" allow="private emergency authority army vip passenger hov taxi bus coach delivery truck trailer motorcycle evehicle custom1 custom2" oneway="1"/>
    <type id="highway.path" priority="1" numLanes="1" speed="2.78" allow="pedestrian bicycle" oneway="1" width="2.00"/>
    <type id="highway.pedestrian" priority="1" numLanes="1" speed="2.78" allow="pedestrian" oneway="1" width="2.00"/>
    <type id="highway.primary" priority="12" numLanes="2" speed="27.78" disallow="tram rail_urban rail rail_electric ship" oneway="1"/>
    <type id="highway.primary_link" priority="7" numLanes="1" speed="22.22" disallow="tram rail_urban rail rail_electric ship" oneway="1"/>
    <type id="highway.raceway" priority="15" numLanes="2" speed="83.33" allow="vip" oneway="1"/>
    <type id="highway.residential" priority="3" numLanes="1" speed="13.89" disallow="tram rail_urban rail rail_electric ship" oneway="1"/>
    <type id="highway.secondary" priority="11" numLanes="2" speed="27.78" disallow="tram rail_urban rail rail_electric ship" oneway="1"/>
    <type id="highway.secondary_link" priority="6" numLanes="1" speed="22.22" disallow="tram rail_urban rail rail_electric ship" oneway="1"/>
    <type id="highway.service" priority="1" numLanes="1" speed="5.56" allow="pedestrian delivery bicycle" oneway="1"/>
    <type id="highway.stairs" priority="1" numLanes="1" speed="1.39" allow="pedestrian" oneway="1" width="2.00"/>
    <type id="highway.step" priority="1" numLanes="1" speed="1.39" allow="pedestrian" oneway="1" width="2.00"/>
    <type id="highway.steps" priority="1" numLanes="1" speed="1.39" allow="pedestrian" oneway="1" width="2.00"/>
    <type id="highway.tertiary" priority="10" numLanes="1" speed="22.22" disallow="tram rail_urban rail rail_electric ship" oneway="1"/>
    <type id="highway.tertiary_link" priority="5" numLanes="1" speed="22.22" disallow="tram rail_urban rail rail_electric ship" oneway="1"/>
    <type id="highway.track" priority="1" numLanes="1" speed="5.56" disallow="tram rail_urban rail rail_electric ship" oneway="1"/>
    <type id="highway.trunk" priority="13" numLanes="2" speed="27.78" disallow="pedestrian bicycle tram rail_urban rail rail_electric ship" oneway="1"/>
    <type id="highway.trunk_link" priority="8" numLanes="1" speed="22.22" disallow="pedestrian bicycle tram rail_urban rail rail_electric ship" oneway="1"/>
    <type id="highway.unclassified" priority="4" numLanes="1" speed="13.89" disallow="tram rail_urban rail rail_electric ship" oneway="1"/>
    <type id="highway.unsurfaced" priority="1" numLanes="1" speed="8.33" disallow="tram rail_urban rail rail_electric ship" oneway="1"/>
    <type id="railway.light_rail" priority="19" numLanes="1" speed="27.78" allow="rail_urban" oneway="1"/>
    <type id="railway.preserved" priority="16" numLanes="1" speed="27.78" allow="rail" oneway="1"/>
    <type id="railway.rail" priority="20" numLanes="1" speed="83.33" allow="rail rail_electric" oneway="1"/>
    <type id="railway.subway" priority="18" numLanes="1" speed="27.78" allow="rail_urban" oneway="1"/>
    <type id="railway.tram" priority="17" numLanes="1" speed="13.89" allow="tram" oneway="1"/>

    <edge id=":junction-intersection_0" function="internal">
        <lane id=":junction-intersection_0_0" index="0" speed="13.00" length="22.40" shape="11.20,8.00 -11.20,8.00"/>
        <lane id=":junction-intersection_0_1" index="1" speed="13.00" length="22.40" shape="11.20,4.80 -11.20,4.80"/>
        <lane id=":junction-intersection_0_2" index="2" speed="13.00" length="22.40" shape="11.20,1.60 -11.20,1.60"/>
    </edge>
    <edge id=":junction-intersection_3" function="internal">
        <lane id=":junction-intersection_3_0" index="0" speed="10.11" length="23.28" shape="11.20,1.60 5.60,0.60 1.60,-2.40 -0.80,-7.40 -1.60,-14.40"/>
    </edge>
    <edge id=":junction-intersection_4" function="internal">
        <lane id=":junction-intersection_4_0" index="0" speed="8.33" length="15.48" shape="1.60,-14.40 2.20,-10.20 4.00,-7.20 7.00,-5.40 11.20,-4.80"/>
    </edge>
    <edge id=":junction-intersection_5" function="internal">
        <lane id=":junction-intersection_5_0" index="0" speed="10.66" length="26.01" shape="1.60,-14.40 0.80,-6.00 -1.60,-0.00 -5.60,3.60 -11.20,4.80"/>
        <lane id=":junction-intersection_5_1" index="1" speed="10.11" length="23.28" shape="1.60,-14.40 0.80,-7.40 -1.60,-2.40 -5.60,0.60 -11.20,1.60"/>
    </edge>
    <edge id=":junction-intersection_7" function="internal">
        <lane id=":junction-intersection_7_0" index="0" speed="8.33" length="15.48" shape="-11.20,-4.80 -7.00,-5.40 -4.00,-7.20 -2.20,-10.20 -1.60,-14.40"/>
    </edge>
    <edge id=":junction-intersection_8" function="internal">
        <lane id=":junction-intersection_8_0" index="0" speed="13.00" length="22.40" shape="-11.20,-4.80 11.20,-4.80"/>
        <lane id=":junction-intersection_8_1" index="1" speed="13.00" length="22.40" shape="-11.20,-1.60 11.20,-1.60"/>
    </edge>

    <edge id="E3" from="junction-east" to="junction-intersection" priority="-1">
        <lane id="E3_0" index="0" speed="13.00" length="48.80" shape="60.00,8.00 11.20,8.00"/>
        <lane id="E3_1" index="1" speed="13.00" length="48.80" shape="60.00,4.80 11.20,4.80"/>
        <lane id="E3_2" index="2" speed="13.00" length="48.80" shape="60.00,1.60 11.20,1.60"/>
    </edge>
    <edge id="E4" from="junction-intersection" to="junction-east" priority="-1">
        <lane id="E4_0" index="0" speed="13.00" length="48.80" shape="11.20,-4.80 60.00,-4.80"/>
        <lane id="E4_1" index="1" speed="13.00" length="48.80" shape="11.20,-1.60 60.00,-1.60"/>
    </edge>
    <edge id="E5" from="junction-intersection" to="junction-west" priority="-1">
        <lane id="E5_0" index="0" speed="13.00" length="48.80" shape="-11.20,8.00 -60.00,8.00"/>
        <lane id="E5_1" index="1" speed="13.00" length="48.80" shape="-11.20,4.80 -60.00,4.80"/>
        <lane id="E5_2" index="2" speed="13.00" length="48.80" shape="-11.20,1.60 -60.00,1.60"/>
    </edge>
    <edge id="E6" from="junction-west" to="junction-intersection" priority="-1">
        <lane id="E6_0" index="0" speed="13.00" length="48.80" shape="-60.00,-4.80 -11.20,-4.80"/>
        <lane id="E6_1" index="1" speed="13.00" length="48.80" shape="-60.00,-1.60 -11.20,-1.60"/>
    </edge>
    <edge id="E7" from="junction-intersection" to="junction-south" priority="-1">
        <lane id="E7_0" index="0" speed="13.00" length="35.60" shape="-1.60,-14.40 -1.60,-50.00"/>
    </edge>
    <edge id="E8" from="junction-south" to="junction-intersection" priority="-1">
        <lane id="E8_0" index="0" speed="13.00" length="35.60" shape="1.60,-50.00 1.60,-14.40"/>
    </edge>

    <junction id="junction-east" type="dead_end" x="60.00" y="0.00" incLanes="E4_0 E4_1" intLanes="" shape="60.00,0.00 60.00,-6.40 60.00,0.00"/>
    <junction id="junction-intersection" type="allway_stop" x="0.00" y="0.00" incLanes="E3_0 E3_1 E3_2 E8_0 E6_0 E6_1" intLanes=":junction-intersection_0_0 :junction-intersection_0_1 :junction-intersection_0_2 :junction-intersection_3_0 :junction-intersection_4_0 :junction-intersection_5_0 :junction-intersection_5_1 :junction-intersection_7_0 :junction-intersection_8_0 :junction-intersection_8_1" shape="11.20,9.60 11.20,-6.40 8.76,-6.62 6.76,-7.29 5.20,-8.40 4.09,-9.96 3.42,-11.96 3.20,-14.40 -3.20,-14.40 -3.42,-11.96 -4.09,-9.96 -5.20,-8.40 -6.76,-7.29 -8.76,-6.62 -11.20,-6.40 -11.20,9.60" radius="8.00">
        <request index="0" response="0001100000" foes="0001100000" cont="0"/>
        <request index="1" response="0001100000" foes="0001100000" cont="0"/>
        <request index="2" response="0001100000" foes="0001100000" cont="0"/>
        <request index="3" response="1111100000" foes="1111100000" cont="0"/>
        <request index="4" response="1100000000" foes="1100000000" cont="0"/>
        <request index="5" response="1100001111" foes="1100001111" cont="0"/>
        <request index="6" response="1100001111" foes="1100001111" cont="0"/>
        <request index="7" response="0000001000" foes="0000001000" cont="0"/>
        <request index="8" response="0001111000" foes="0001111000" cont="0"/>
        <request index="9" response="0001111000" foes="0001111000" cont="0"/>
    </junction>
    <junction id="junction-south" type="dead_end" x="0.00" y="-50.00" incLanes="E7_0" intLanes="" shape="0.00,-50.00 -3.20,-50.00 0.00,-50.00"/>
    <junction id="junction-west" type="dead_end" x="-60.00" y="0.00" incLanes="E5_0 E5_1 E5_2" intLanes="" shape="-60.00,0.00 -60.00,9.60 -60.00,0.00"/>

    <connection from="E3" to="E5" fromLane="0" toLane="0" via=":junction-intersection_0_0" dir="s" state="w"/>
    <connection from="E3" to="E5" fromLane="1" toLane="1" via=":junction-intersection_0_1" dir="s" state="w"/>
    <connection from="E3" to="E5" fromLane="2" toLane="2" via=":junction-intersection_0_2" dir="s" state="w"/>
    <connection from="E3" to="E7" fromLane="2" toLane="0" via=":junction-intersection_3_0" dir="l" state="w"/>
    <connection from="E6" to="E7" fromLane="0" toLane="0" via=":junction-intersection_7_0" dir="r" state="w"/>
    <connection from="E6" to="E4" fromLane="0" toLane="0" via=":junction-intersection_8_0" dir="s" state="w"/>
    <connection from="E6" to="E4" fromLane="1" toLane="1" via=":junction-intersection_8_1" dir="s" state="w"/>
    <connection from="E8" to="E4" fromLane="0" toLane="0" via=":junction-intersection_4_0" dir="r" state="w"/>
    <connection from="E8" to="E5" fromLane="0" toLane="1" via=":junction-intersection_5_0" dir="l" state="w"/>
    <connection from="E8" to="E5" fromLane="0" toLane="2" via=":junction-intersection_5_1" dir="l" state="w"/>

    <connection from=":junction-intersection_0" to="E5" fromLane="0" toLane="0" dir="s" state="M"/>
    <connection from=":junction-intersection_0" to="E5" fromLane="1" toLane="1" dir="s" state="M"/>
    <connection from=":junction-intersection_0" to="E5" fromLane="2" toLane="2" dir="s" state="M"/>
    <connection from=":junction-intersection_3" to="E7" fromLane="0" toLane="0" dir="l" state="M"/>
    <connection from=":junction-intersection_4" to="E4" fromLane="0" toLane="0" dir="r" state="M"/>
    <connection from=":junction-intersection_5" to="E5" fromLane="0" toLane="1" dir="l" state="M"/>
    <connection from=":junction-intersection_5" to="E5" fromLane="1" toLane="2" dir="l" state="M"/>
    <connection from=":junction-intersection_7" to="E7" fromLane="0" toLane="0" dir="r" state="M"/>
    <connection from=":junction-intersection_8" to="E4" fromLane="0" toLane="0" dir="s" state="M"/>
    <connection from=":junction-intersection_8" to="E4" fromLane="1" toLane="1" dir="s" state="M"/>

</net>
