<?xml version="1.0" encoding="UTF-8"?>

<!-- generated on 2022-08-31 01:31:12 by Eclipse SUMO netedit Version 1.10.0
<configuration xmlns:xsi="http://www.w3.org/2001/XMLSchema-instance" xsi:noNamespaceSchemaLocation="http://sumo.dlr.de/xsd/netconvertConfiguration.xsd">

    <input>
        <sumo-net-file value="multi_agent/low_volume/2lane_shoulder_short_agents_2/map.net.xml"/>
    </input>

    <output>
        <output-file value="multi_agent/low_volume/2lane_shoulder_short_agents_2/map.net.xml"/>
    </output>

    <processing>
        <geometry.min-radius.fix.railways value="false"/>
        <geometry.max-grade.fix value="false"/>
        <offset.disable-normalization value="true"/>
        <lefthand value="false"/>
    </processing>

    <junctions>
        <no-turnarounds value="true"/>
        <junctions.corner-detail value="5"/>
        <junctions.limit-turn-speed value="5.5"/>
        <rectangular-lane-cut value="false"/>
    </junctions>

    <pedestrian>
        <walkingareas value="false"/>
    </pedestrian>

    <report>
        <aggregate-warnings value="5"/>
    </report>

</configuration>
-->

<net version="1.9" junctionCornerDetail="5" limitTurnSpeed="5.50" xmlns:xsi="http://www.w3.org/2001/XMLSchema-instance" xsi:noNamespaceSchemaLocation="http://sumo.dlr.de/xsd/net_file.xsd">

    <location netOffset="0.00,0.00" convBoundary="40.00,140.22,270.00,170.00" origBoundary="-10000000000.00,-10000000000.00,10000000000.00,10000000000.00" projParameter="!"/>

    <edge id=":gneJ11_0" function="internal">
        <lane id=":gneJ11_0_0" index="0" speed="13.89" length="6.64" shape="79.94,161.49 81.82,162.03 83.15,162.15 84.53,162.07 86.50,162.00"/>
    </edge>
    <edge id=":gneJ11_1" function="internal">
        <lane id=":gneJ11_1_0" index="0" speed="13.89" length="6.86" shape="79.64,165.20 86.50,165.20"/>
        <lane id=":gneJ11_1_1" index="1" speed="13.89" length="6.86" shape="79.64,168.40 86.50,168.40"/>
    </edge>
    <edge id=":gneJ12_0" function="internal">
        <lane id=":gneJ12_0_0" index="0" speed="13.89" length="8.00" shape="126.00,165.20 134.00,165.20"/>
        <lane id=":gneJ12_0_1" index="1" speed="13.89" length="8.00" shape="126.00,168.40 134.00,168.40"/>
    </edge>

    <edge id="gneE10" from="gneJ14" to="gneJ11" priority="-1" shape="40.58,140.22 41.81,141.39 43.07,142.55 44.36,143.68 45.69,144.80 47.05,145.89 48.44,146.96 49.87,148.02 51.33,149.05 52.82,150.07 54.35,151.06 55.90,152.04 57.50,153.00 59.12,153.93 60.78,154.85 62.47,155.74 64.19,156.62 65.95,157.48 67.74,158.32 69.57,159.13 71.42,159.93 73.31,160.71 75.24,161.47 77.19,162.20 79.18,162.92 81.20,163.62 83.26,164.30 85.35,164.96 87.47,165.60 89.62,166.22 91.81,166.82 94.03,167.40 96.28,167.96 98.57,168.50 100.89,169.02 103.24,169.52 105.63,170.00">
        <lane id="gneE10_0" index="0" speed="13.89" length="44.71" shape="41.68,139.06 42.90,140.22 44.14,141.36 45.40,142.47 46.71,143.56 48.04,144.63 49.40,145.68 50.81,146.72 52.24,147.74 53.71,148.74 55.21,149.71 56.74,150.68 58.31,151.62 59.91,152.54 61.54,153.44 63.21,154.32 64.91,155.19 66.64,156.04 68.40,156.86 70.21,157.66 72.04,158.46 73.91,159.23 75.81,159.98 77.74,160.70 79.71,161.41 79.94,161.49"/>
    </edge>
    <edge id="gneE7" from="gneJ10" to="gneJ11" priority="-1">
        <lane id="gneE7_0" index="0" speed="13.89" length="39.64" shape="40.00,165.20 79.64,165.20"/>
        <lane id="gneE7_1" index="1" speed="13.89" length="39.64" shape="40.00,168.40 79.64,168.40"/>
    </edge>
    <edge id="gneE8" from="gneJ11" to="gneJ12" priority="-1">
        <lane id="gneE8_0" index="0" speed="13.89" length="39.50" shape="86.50,162.00 126.00,162.00"/>
        <lane id="gneE8_1" index="1" speed="13.89" length="39.50" shape="86.50,165.20 126.00,165.20"/>
        <lane id="gneE8_2" index="2" speed="13.89" length="39.50" shape="86.50,168.40 126.00,168.40"/>
    </edge>
    <edge id="gneE9" from="gneJ12" to="gneJ13" priority="-1">
        <lane id="gneE9_0" index="0" speed="13.89" length="136.00" shape="134.00,165.20 270.00,165.20"/>
        <lane id="gneE9_1" index="1" speed="13.89" length="136.00" shape="134.00,168.40 270.00,168.40"/>
    </edge>

    <junction id="gneJ10" type="dead_end" x="40.00" y="170.00" incLanes="" intLanes="" shape="40.00,170.00 40.00,163.60"/>
    <junction id="gneJ11" type="priority" x="105.63" y="170.00" incLanes="gneE10_0 gneE7_0 gneE7_1" intLanes=":gneJ11_0_0 :gneJ11_1_0 :gneJ11_1_1" shape="86.50,170.00 86.50,160.40 84.14,160.51 83.30,160.55 82.48,160.51 81.52,160.31 80.26,159.91 79.63,163.07 79.64,163.60 79.64,170.00">
        <request index="0" response="000" foes="000" cont="0"/>
        <request index="1" response="000" foes="000" cont="0"/>
        <request index="2" response="000" foes="000" cont="0"/>
    </junction>
    <junction id="gneJ12" type="priority" x="130.00" y="170.00" incLanes="gneE8_0 gneE8_1 gneE8_2" intLanes=":gneJ12_0_0 :gneJ12_0_1" shape="134.00,170.00 134.00,163.60 130.97,162.77 129.03,161.23 127.79,160.64 126.00,160.40 126.00,170.00">
        <request index="0" response="00" foes="00" cont="0"/>
        <request index="1" response="00" foes="00" cont="0"/>
    </junction>
    <junction id="gneJ13" type="dead_end" x="270.00" y="170.00" incLanes="gneE9_0 gneE9_1" intLanes="" shape="270.00,163.60 270.00,170.00"/>
    <junction id="gneJ14" type="dead_end" x="40.58" y="140.22" incLanes="" intLanes="" shape="40.58,140.22 42.79,137.90"/>

    <connection from="gneE10" to="gneE8" fromLane="0" toLane="0" via=":gneJ11_0_0" dir="s" state="M"/>
    <connection from="gneE7" to="gneE8" fromLane="0" toLane="1" via=":gneJ11_1_0" dir="s" state="M"/>
    <connection from="gneE7" to="gneE8" fromLane="1" toLane="2" via=":gneJ11_1_1" dir="s" state="M"/>
    <connection from="gneE8" to="gneE9" fromLane="1" toLane="0" keepClear="0" via=":gneJ12_0_0" dir="s" state="M"/>
    <connection from="gneE8" to="gneE9" fromLane="2" toLane="1" keepClear="0" via=":gneJ12_0_1" dir="s" state="M"/>

    <connection from=":gneJ11_0" to="gneE8" fromLane="0" toLane="0" dir="s" state="M"/>
    <connection from=":gneJ11_1" to="gneE8" fromLane="0" toLane="1" dir="s" state="M"/>
    <connection from=":gneJ11_1" to="gneE8" fromLane="1" toLane="2" dir="s" state="M"/>
    <connection from=":gneJ12_0" to="gneE9" fromLane="0" toLane="0" dir="s" state="M"/>
    <connection from=":gneJ12_0" to="gneE9" fromLane="1" toLane="1" dir="s" state="M"/>

</net>
