<?xml version="1.0" encoding="UTF-8"?>

<!-- generated on 2022-07-11 16:10:41 by Eclipse SUMO netedit Version 1.10.0
<configuration xmlns:xsi="http://www.w3.org/2001/XMLSchema-instance" xsi:noNamespaceSchemaLocation="http://sumo.dlr.de/xsd/netconvertConfiguration.xsd">

    <input>
        <sumo-net-file value="scenarios/eval_scenarios/straight/single_agent/3lane_curve_cruise/map.net.xml"/>
    </input>

    <output>
        <output-file value="scenarios/eval_scenarios/straight/single_agent/3lane_curve_cruise/map.net.xml"/>
    </output>

    <processing>
        <geometry.min-radius.fix.railways value="false"/>
        <geometry.max-grade.fix value="false"/>
        <offset.disable-normalization value="true"/>
        <lefthand value="false"/>
    </processing>

    <junctions>
        <no-internal-links value="true"/>
        <no-turnarounds value="true"/>
        <junctions.corner-detail value="5"/>
        <junctions.limit-turn-speed value="5.5"/>
        <rectangular-lane-cut value="false"/>
    </junctions>

    <pedestrian>
        <walkingareas value="false"/>
    </pedestrian>

    <report>
        <aggregate-warnings value="5"/>
    </report>

</configuration>
-->

<net version="1.9" junctionCornerDetail="5" limitTurnSpeed="5.50" xmlns:xsi="http://www.w3.org/2001/XMLSchema-instance" xsi:noNamespaceSchemaLocation="http://sumo.dlr.de/xsd/net_file.xsd">

    <location netOffset="0.00,0.00" convBoundary="0.00,100.00,153.10,188.10" origBoundary="-10000000000.00,-10000000000.00,10000000000.00,10000000000.00" projParameter="!"/>

    <edge id="gneE3" from="gneJ4" to="gneJ6" priority="-1" spreadType="center" shape="0.00,100.00 2.06,100.33 4.11,100.66 6.15,101.01 8.18,101.38 10.20,101.76 12.22,102.15 14.22,102.55 16.22,102.97 18.20,103.40 20.18,103.84 22.14,104.30 24.10,104.77 26.05,105.25 27.99,105.75 29.92,106.26 31.84,106.78 33.75,107.32 35.65,107.87 37.54,108.43 39.43,109.00 41.30,109.59 43.17,110.19 45.02,110.81 46.87,111.44 48.71,112.08 50.53,112.73 52.35,113.40 54.16,114.08 55.96,114.77 57.75,115.48 59.53,116.20 61.31,116.93 63.07,117.68 64.82,118.44 66.57,119.21 68.30,120.00 70.03,120.80 71.75,121.61 73.45,122.43 75.15,123.27 76.84,124.12 78.52,124.99 80.19,125.87 81.85,126.76 83.50,127.66 85.15,128.58 86.78,129.51 88.40,130.45 90.02,131.41 91.62,132.38 93.22,133.36 94.81,134.36 96.39,135.37 97.95,136.39 99.51,137.43 101.06,138.48 102.60,139.54 104.14,140.62 105.66,141.70 107.17,142.81 108.67,143.92 110.17,145.05 111.65,146.19 113.13,147.35 114.60,148.51 116.05,149.69 117.50,150.89 118.94,152.09 120.37,153.31 121.79,154.55 123.20,155.79 124.60,157.05 126.00,158.33 127.38,159.61 128.75,160.91 130.12,162.23 131.47,163.55 132.82,164.89 134.16,166.24 135.48,167.61 136.80,168.98 138.11,170.38 139.41,171.78 140.70,173.20 141.98,174.63 143.26,176.07 144.52,177.53 145.77,179.00 147.02,180.48 148.25,181.98 149.48,183.49 150.69,185.01 151.90,186.55 153.10,188.10">
        <lane id="gneE3_0" index="0" speed="13.89" length="181.27" shape="0.51,96.84 2.57,97.17 4.63,97.50 6.71,97.86 8.76,98.23 10.80,98.62 12.84,99.01 14.86,99.42 16.89,99.84 18.89,100.27 20.89,100.72 22.88,101.19 24.86,101.66 26.83,102.15 28.80,102.65 30.75,103.17 32.69,103.70 34.63,104.24 36.55,104.80 38.46,105.36 40.37,105.94 42.27,106.54 44.17,107.15 46.04,107.78 47.91,108.41 49.77,109.06 51.62,109.72 53.47,110.40 55.30,111.09 57.12,111.79 58.94,112.51 60.74,113.24 62.54,113.98 64.33,114.74 66.10,115.51 67.88,116.29 69.64,117.09 71.38,117.90 73.13,118.72 74.85,119.55 76.58,120.41 78.29,121.27 80.00,122.15 81.69,123.04 83.37,123.95 85.05,124.86 86.72,125.79 88.38,126.74 90.02,127.69 91.67,128.67 93.29,129.65 94.91,130.64 96.52,131.66 98.13,132.68 99.71,133.72 101.29,134.77 102.86,135.84 104.43,136.91 105.99,138.01 107.53,139.11 109.07,140.23 110.58,141.36 112.11,142.50 113.61,143.66 115.11,144.83 116.60,146.01 118.08,147.22 119.54,148.43 121.00,149.64 122.46,150.89 123.90,152.14 125.33,153.40 126.75,154.68 128.17,155.98 129.57,157.28 130.96,158.60 132.35,159.93 133.72,161.27 135.08,162.63 136.45,164.00 137.78,165.39 139.12,166.78 140.45,168.20 141.77,169.62 143.08,171.06 144.37,172.50 145.67,173.96 146.95,175.45 148.21,176.93 149.48,178.43 150.73,179.95 151.97,181.48 153.20,183.03 154.42,184.58 155.63,186.14"/>
        <lane id="gneE3_1" index="1" speed="13.89" length="181.27" shape="-0.00,100.00 2.06,100.33 4.11,100.66 6.15,101.01 8.18,101.38 10.20,101.76 12.22,102.15 14.22,102.55 16.22,102.97 18.20,103.40 20.18,103.84 22.14,104.30 24.10,104.77 26.05,105.25 27.99,105.75 29.92,106.26 31.84,106.78 33.75,107.32 35.65,107.87 37.54,108.43 39.43,109.00 41.30,109.59 43.17,110.19 45.02,110.81 46.87,111.44 48.71,112.08 50.53,112.73 52.35,113.40 54.16,114.08 55.96,114.77 57.75,115.48 59.53,116.20 61.31,116.93 63.07,117.68 64.82,118.44 66.57,119.21 68.30,120.00 70.03,120.80 71.75,121.61 73.45,122.43 75.15,123.27 76.84,124.12 78.52,124.99 80.19,125.87 81.85,126.76 83.50,127.66 85.15,128.58 86.78,129.51 88.40,130.45 90.02,131.41 91.62,132.38 93.22,133.36 94.81,134.36 96.39,135.37 97.95,136.39 99.51,137.43 101.06,138.48 102.60,139.54 104.14,140.62 105.66,141.70 107.17,142.81 108.67,143.92 110.17,145.05 111.65,146.19 113.13,147.35 114.60,148.51 116.05,149.69 117.50,150.89 118.94,152.09 120.37,153.31 121.79,154.55 123.20,155.79 124.60,157.05 126.00,158.33 127.38,159.61 128.75,160.91 130.12,162.23 131.47,163.55 132.82,164.89 134.16,166.24 135.48,167.61 136.80,168.98 138.11,170.38 139.41,171.78 140.70,173.20 141.98,174.63 143.26,176.07 144.52,177.53 145.77,179.00 147.02,180.48 148.25,181.98 149.48,183.49 150.69,185.01 151.90,186.55 153.10,188.10"/>
        <lane id="gneE3_2" index="2" speed="13.89" length="181.27" shape="-0.51,103.16 1.55,103.49 3.59,103.82 5.59,104.16 7.60,104.53 9.60,104.90 11.60,105.29 13.58,105.68 15.55,106.10 17.51,106.53 19.47,106.96 21.40,107.41 23.34,107.88 25.27,108.35 27.18,108.85 29.09,109.35 30.99,109.86 32.87,110.40 34.75,110.94 36.62,111.50 38.49,112.06 40.33,112.64 42.17,113.23 44.00,113.84 45.83,114.47 47.65,115.10 49.44,115.74 51.23,116.40 53.02,117.07 54.80,117.75 56.56,118.45 58.32,119.16 60.08,119.88 61.81,120.62 63.54,121.37 65.26,122.13 66.96,122.91 68.68,123.70 70.37,124.50 72.05,125.31 73.72,126.13 75.39,126.97 77.04,127.83 78.69,128.70 80.33,129.57 81.95,130.46 83.58,131.37 85.18,132.28 86.78,133.21 88.37,134.15 89.95,135.11 91.53,136.08 93.10,137.06 94.65,138.06 96.19,139.06 97.73,140.09 99.26,141.12 100.77,142.17 102.29,143.23 103.79,144.29 105.27,145.39 106.76,146.48 108.23,147.60 109.69,148.72 111.15,149.87 112.60,151.01 114.02,152.16 115.46,153.35 116.88,154.54 118.28,155.73 119.68,156.96 121.07,158.18 122.45,159.42 123.83,160.68 125.19,161.94 126.54,163.22 127.89,164.53 129.22,165.83 130.56,167.15 131.87,168.48 133.18,169.83 134.48,171.18 135.77,172.56 137.05,173.94 138.32,175.34 139.59,176.76 140.85,178.18 142.09,179.61 143.33,181.07 144.56,182.53 145.77,184.01 146.99,185.50 148.18,186.99 149.38,188.52 150.57,190.06"/>
    </edge>

    <junction id="gneJ4" type="dead_end" x="0.00" y="100.00" incLanes="" intLanes="" shape="-0.76,104.74 0.76,95.26"/>
    <junction id="gneJ6" type="dead_end" x="153.10" y="188.10" incLanes="gneE3_0 gneE3_1 gneE3_2" intLanes="" shape="156.90,185.16 149.30,191.04"/>

</net>
