<?xml version="1.0" encoding="UTF-8"?>

<!-- generated on 2022-07-11 15:29:35 by Eclipse SUMO netedit Version 1.10.0
<configuration xmlns:xsi="http://www.w3.org/2001/XMLSchema-instance" xsi:noNamespaceSchemaLocation="http://sumo.dlr.de/xsd/netconvertConfiguration.xsd">

    <input>
        <sumo-net-file value="scenarios/eval_scenarios/merge/single_agent/2lane/map.net.xml"/>
    </input>

    <output>
        <output-file value="scenarios/eval_scenarios/merge/single_agent/2lane/map.net.xml"/>
    </output>

    <processing>
        <geometry.min-radius.fix.railways value="false"/>
        <geometry.max-grade.fix value="false"/>
        <offset.disable-normalization value="true"/>
        <lefthand value="false"/>
    </processing>

    <junctions>
        <no-turnarounds value="true"/>
        <junctions.corner-detail value="5"/>
        <junctions.limit-turn-speed value="5.5"/>
        <rectangular-lane-cut value="false"/>
    </junctions>

    <pedestrian>
        <walkingareas value="false"/>
    </pedestrian>

    <report>
        <aggregate-warnings value="5"/>
    </report>

</configuration>
-->

<net version="1.9" junctionCornerDetail="5" limitTurnSpeed="5.50" xmlns:xsi="http://www.w3.org/2001/XMLSchema-instance" xsi:noNamespaceSchemaLocation="http://sumo.dlr.de/xsd/net_file.xsd">

    <location netOffset="0.00,0.00" convBoundary="39.23,75.98,236.67,100.00" origBoundary="-10000000000.00,-10000000000.00,10000000000.00,10000000000.00" projParameter="!"/>

    <edge id=":gneJ5_0" function="internal">
        <lane id=":gneJ5_0_0" index="0" speed="13.89" length="23.05" shape="84.37,94.86 88.53,95.69 93.62,96.88 99.66,97.94 106.67,98.40"/>
        <lane id=":gneJ5_0_1" index="1" speed="13.89" length="23.05" shape="84.37,94.86 88.54,96.19 93.64,98.48 99.68,100.64 106.70,101.60"/>
    </edge>
    <edge id=":gneJ5_2" function="internal">
        <lane id=":gneJ5_2_0" index="0" speed="13.89" length="22.63" shape="84.15,98.40 106.67,98.40"/>
        <lane id=":gneJ5_2_1" index="1" speed="13.89" length="22.63" shape="83.95,101.60 106.70,101.60"/>
    </edge>

    <edge id="gneE3" from="gneJ4" to="gneJ5" priority="-1" spreadType="center">
        <lane id="gneE3_0" index="0" speed="13.89" length="41.70" shape="42.35,98.40 84.15,98.40"/>
        <lane id="gneE3_1" index="1" speed="13.89" length="41.70" shape="42.35,101.60 83.95,101.60"/>
    </edge>
    <edge id="gneE4" from="gneJ5" to="gneJ6" priority="-1" spreadType="center">
        <lane id="gneE4_0" index="0" speed="13.89" length="129.99" shape="106.67,98.40 236.67,98.40"/>
        <lane id="gneE4_1" index="1" speed="13.89" length="129.99" shape="106.70,101.60 236.67,101.60"/>
    </edge>
    <edge id="gneE6" from="gneJ8" to="gneJ5" priority="-1" spreadType="center" shape="39.23,75.98 41.99,77.46 44.67,78.88 47.28,80.24 49.83,81.55 52.30,82.79 54.70,83.97 57.02,85.09 59.28,86.15 61.46,87.15 63.58,88.10 65.62,88.98 67.59,89.80 69.49,90.56 71.31,91.26 73.07,91.91 74.75,92.49 76.36,93.01 77.90,93.47 79.37,93.87 80.77,94.22 82.10,94.50 83.35,94.72 84.54,94.88 85.65,94.99 86.69,95.03">
        <lane id="gneE6_0" index="0" speed="13.89" length="49.13" width="4.00" shape="39.23,75.98 41.99,77.46 44.67,78.88 47.28,80.24 49.83,81.55 52.30,82.79 54.70,83.97 57.02,85.09 59.28,86.15 61.46,87.15 63.58,88.10 65.62,88.98 67.59,89.80 69.49,90.56 71.31,91.26 73.07,91.91 74.75,92.49 76.36,93.01 77.90,93.47 79.37,93.87 80.77,94.22 82.10,94.50 83.35,94.72 84.37,94.86"/>
    </edge>

    <junction id="gneJ4" type="dead_end" x="42.35" y="100.00" incLanes="" intLanes="" shape="42.35,103.20 42.35,96.80"/>
    <junction id="gneJ5" type="priority" x="87.87" y="100.00" incLanes="gneE6_0 gneE3_0 gneE3_1" intLanes=":gneJ5_0_0 :gneJ5_0_1 :gneJ5_2_0 :gneJ5_2_1" shape="106.71,103.13 106.65,96.78 99.47,95.83 92.89,94.66 84.47,93.17 83.85,103.20" customShape="1" fringe="outer">
        <request index="0" response="1100" foes="1100" cont="0"/>
        <request index="1" response="1100" foes="1100" cont="0"/>
        <request index="2" response="0000" foes="0011" cont="0"/>
        <request index="3" response="0000" foes="0011" cont="0"/>
    </junction>
    <junction id="gneJ6" type="dead_end" x="236.67" y="100.00" incLanes="gneE4_0 gneE4_1" intLanes="" shape="236.66,95.20 236.68,104.80" customShape="1"/>
    <junction id="gneJ8" type="dead_end" x="39.23" y="75.98" incLanes="" intLanes="" shape="38.28,77.74 40.18,74.22"/>

    <connection from="gneE3" to="gneE4" fromLane="0" toLane="0" via=":gneJ5_2_0" dir="s" state="M"/>
    <connection from="gneE3" to="gneE4" fromLane="1" toLane="1" via=":gneJ5_2_1" dir="s" state="M"/>
    <connection from="gneE6" to="gneE4" fromLane="0" toLane="0" via=":gneJ5_0_0" dir="s" state="m"/>
    <connection from="gneE6" to="gneE4" fromLane="0" toLane="1" via=":gneJ5_0_1" dir="s" state="m"/>

    <connection from=":gneJ5_0" to="gneE4" fromLane="0" toLane="0" dir="s" state="M"/>
    <connection from=":gneJ5_0" to="gneE4" fromLane="1" toLane="1" dir="s" state="M"/>
    <connection from=":gneJ5_2" to="gneE4" fromLane="0" toLane="0" dir="s" state="M"/>
    <connection from=":gneJ5_2" to="gneE4" fromLane="1" toLane="1" dir="s" state="M"/>

</net>
