<?xml version="1.0" encoding="UTF-8"?>

<!-- generated on 2022-07-11 15:47:02 by Eclipse SUMO netedit Version 1.10.0
<configuration xmlns:xsi="http://www.w3.org/2001/XMLSchema-instance" xsi:noNamespaceSchemaLocation="http://sumo.dlr.de/xsd/netconvertConfiguration.xsd">

    <input>
        <sumo-net-file value="scenarios/eval_scenarios/merge/single_agent/3lane_curve/map.net.xml"/>
    </input>

    <output>
        <output-file value="scenarios/eval_scenarios/merge/single_agent/3lane_curve/map.net.xml"/>
    </output>

    <processing>
        <geometry.min-radius.fix.railways value="false"/>
        <geometry.max-grade.fix value="false"/>
        <offset.disable-normalization value="true"/>
        <lefthand value="false"/>
    </processing>

    <junctions>
        <no-turnarounds value="true"/>
        <junctions.corner-detail value="5"/>
        <junctions.limit-turn-speed value="5.5"/>
        <rectangular-lane-cut value="false"/>
    </junctions>

    <pedestrian>
        <walkingareas value="false"/>
    </pedestrian>

    <report>
        <aggregate-warnings value="5"/>
    </report>

</configuration>
-->

<net version="1.9" junctionCornerDetail="5" limitTurnSpeed="5.50" xmlns:xsi="http://www.w3.org/2001/XMLSchema-instance" xsi:noNamespaceSchemaLocation="http://sumo.dlr.de/xsd/net_file.xsd">

    <location netOffset="0.00,0.00" convBoundary="39.23,75.98,238.72,132.20" origBoundary="-10000000000.00,-10000000000.00,10000000000.00,10000000000.00" projParameter="!"/>

    <edge id=":gneJ5_0" function="internal">
        <lane id=":gneJ5_0_0" index="0" speed="13.89" length="25.58" shape="83.83,92.82 107.80,98.51"/>
        <lane id=":gneJ5_0_1" index="1" speed="13.89" length="25.58" shape="83.83,92.82 87.84,94.39 92.82,96.99 99.24,99.73 107.55,101.70"/>
        <lane id=":gneJ5_0_2" index="2" speed="13.89" length="25.58" shape="83.83,92.82 87.73,94.88 92.50,98.56 98.81,102.39 107.30,104.90"/>
    </edge>
    <edge id=":gneJ5_3" function="internal">
        <lane id=":gneJ5_3_0" index="0" speed="13.89" length="23.84" shape="83.82,96.80 90.96,96.84 95.85,97.04 100.72,97.55 107.80,98.51"/>
        <lane id=":gneJ5_3_1" index="1" speed="13.89" length="23.84" shape="83.81,100.00 90.88,100.04 95.72,100.24 100.54,100.75 107.55,101.70"/>
        <lane id=":gneJ5_3_2" index="2" speed="13.89" length="23.84" shape="83.80,103.20 90.80,103.24 95.59,103.45 100.36,103.95 107.30,104.90"/>
    </edge>

    <edge id="gneE3" from="gneJ4" to="gneJ5" priority="-1" spreadType="center">
        <lane id="gneE3_0" index="0" speed="13.89" length="41.46" shape="42.35,96.80 83.82,96.80"/>
        <lane id="gneE3_1" index="1" speed="13.89" length="41.46" shape="42.35,100.00 83.81,100.00"/>
        <lane id="gneE3_2" index="2" speed="13.89" length="41.46" shape="42.35,103.20 83.80,103.20"/>
    </edge>
    <edge id="gneE4" from="gneJ5" to="gneJ6" priority="-1" spreadType="center" shape="87.87,100.00 88.76,100.01 89.68,100.02 90.62,100.05 91.60,100.09 92.61,100.14 93.64,100.20 94.71,100.28 95.80,100.36 96.92,100.46 98.07,100.56 99.25,100.68 100.46,100.81 101.70,100.95 102.97,101.10 104.27,101.26 105.60,101.43 106.96,101.62 108.34,101.81 109.76,102.02 111.20,102.24 112.67,102.47 114.18,102.71 115.71,102.96 117.27,103.22 118.86,103.49 120.48,103.78 122.13,104.07 123.81,104.38 125.51,104.70 127.25,105.03 129.01,105.37 130.81,105.72 132.63,106.08 134.49,106.45 136.37,106.84 138.28,107.23 140.22,107.64 142.19,108.06 144.19,108.49 146.22,108.93 148.28,109.38 150.37,109.84 152.48,110.32 154.63,110.80 156.80,111.30 159.01,111.81 161.24,112.32 163.50,112.85 165.79,113.39 168.12,113.95 170.47,114.51 172.84,115.08 175.25,115.67 177.69,116.26 180.16,116.87 182.66,117.49 185.18,118.12 187.74,118.76 190.32,119.41 192.93,120.08 195.58,120.75 198.25,121.44 200.95,122.13 203.68,122.84 206.44,123.56 209.23,124.29 212.04,125.03 214.89,125.78 217.77,126.54 220.67,127.32 223.61,128.10 226.57,128.90 229.56,129.71 232.59,130.53 235.64,131.36 238.72,132.20">
        <lane id="gneE4_0" index="0" speed="13.89" length="134.74" shape="107.80,98.51 108.79,98.64 110.24,98.86 111.69,99.08 113.17,99.31 114.69,99.55 116.23,99.80 117.80,100.06 119.41,100.34 121.04,100.63 122.70,100.92 124.40,101.23 126.10,101.56 127.85,101.89 129.62,102.23 131.43,102.58 133.25,102.94 135.13,103.31 137.02,103.71 138.93,104.10 140.88,104.51 142.86,104.93 144.87,105.36 146.90,105.80 148.97,106.25 151.07,106.72 153.18,107.20 155.34,107.68 157.52,108.18 159.73,108.69 161.96,109.20 164.23,109.73 166.53,110.28 168.86,110.84 171.22,111.40 173.59,111.97 176.01,112.56 178.45,113.15 180.93,113.76 183.43,114.38 185.96,115.02 188.52,115.66 191.11,116.31 193.72,116.98 196.37,117.65 199.05,118.34 201.75,119.03 204.49,119.74 207.25,120.46 210.04,121.19 212.85,121.94 215.71,122.69 218.59,123.45 221.50,124.23 224.44,125.01 227.41,125.81 230.40,126.62 233.43,127.44 236.48,128.27 239.56,129.11"/>
        <lane id="gneE4_1" index="1" speed="13.89" length="134.74" shape="107.55,101.70 108.34,101.81 109.76,102.02 111.20,102.24 112.67,102.47 114.18,102.71 115.71,102.96 117.27,103.22 118.86,103.49 120.48,103.78 122.13,104.07 123.81,104.38 125.51,104.70 127.25,105.03 129.01,105.37 130.81,105.72 132.63,106.08 134.49,106.45 136.37,106.84 138.28,107.23 140.22,107.64 142.19,108.06 144.19,108.49 146.22,108.93 148.28,109.38 150.37,109.84 152.48,110.32 154.63,110.80 156.80,111.30 159.01,111.81 161.24,112.32 163.50,112.85 165.79,113.39 168.12,113.95 170.47,114.51 172.84,115.08 175.25,115.67 177.69,116.26 180.16,116.87 182.66,117.49 185.18,118.12 187.74,118.76 190.32,119.41 192.93,120.08 195.58,120.75 198.25,121.44 200.95,122.13 203.68,122.84 206.44,123.56 209.23,124.29 212.04,125.03 214.89,125.78 217.77,126.54 220.67,127.32 223.61,128.10 226.57,128.90 229.56,129.71 232.59,130.53 235.64,131.36 238.72,132.20"/>
        <lane id="gneE4_2" index="2" speed="13.89" length="134.74" shape="107.30,104.90 107.89,104.98 109.28,105.18 110.71,105.40 112.17,105.63 113.67,105.87 115.19,106.12 116.74,106.38 118.31,106.64 119.92,106.93 121.56,107.22 123.22,107.53 124.92,107.84 126.65,108.17 128.40,108.51 130.19,108.86 132.01,109.22 133.85,109.59 135.72,109.97 137.63,110.36 139.56,110.77 141.52,111.19 143.51,111.62 145.54,112.06 147.59,112.51 149.67,112.96 151.78,113.44 153.92,113.92 156.08,114.42 158.29,114.93 160.52,115.44 162.77,115.97 165.05,116.50 167.38,117.06 169.72,117.62 172.09,118.19 174.49,118.78 176.93,119.37 179.39,119.98 181.89,120.60 184.40,121.22 186.96,121.86 189.53,122.51 192.14,123.18 194.79,123.85 197.45,124.54 200.15,125.23 202.87,125.94 205.63,126.66 208.42,127.39 211.23,128.12 214.07,128.87 216.95,129.63 219.84,130.41 222.78,131.19 225.73,131.99 228.72,132.80 231.75,133.62 234.80,134.45 237.88,135.29"/>
    </edge>
    <edge id="gneE6" from="gneJ8" to="gneJ5" priority="-1" spreadType="center" shape="39.23,75.98 42.33,77.35 45.33,78.66 48.24,79.92 51.05,81.12 53.77,82.26 56.40,83.35 58.94,84.39 61.38,85.36 63.72,86.28 65.98,87.15 68.13,87.96 70.20,88.71 72.17,89.41 74.05,90.05 75.83,90.64 77.52,91.16 79.12,91.64 80.62,92.06 82.03,92.42 83.35,92.72 84.57,92.97 85.70,93.17 86.73,93.30 87.67,93.38 88.52,93.41">
        <lane id="gneE6_0" index="0" speed="13.89" length="47.74" width="4.00" shape="39.23,75.98 42.33,77.35 45.33,78.66 48.24,79.92 51.05,81.12 53.77,82.26 56.40,83.35 58.94,84.39 61.38,85.36 63.72,86.28 65.98,87.15 68.13,87.96 70.20,88.71 72.17,89.41 74.05,90.05 75.83,90.64 77.52,91.16 79.12,91.64 80.62,92.06 82.03,92.42 83.35,92.72 83.83,92.82"/>
    </edge>

    <junction id="gneJ4" type="dead_end" x="42.35" y="100.00" incLanes="" intLanes="" shape="42.35,104.80 42.35,95.20"/>
    <junction id="gneJ5" type="priority" x="87.87" y="100.00" incLanes="gneE6_0 gneE3_0 gneE3_1 gneE3_2" intLanes=":gneJ5_0_0 :gneJ5_0_1 :gneJ5_0_2 :gneJ5_3_0 :gneJ5_3_1 :gneJ5_3_2" shape="107.17,106.56 107.93,96.79 99.46,95.47 93.96,93.89 83.84,90.78 83.79,104.80" customShape="1" fringe="outer">
        <request index="0" response="111000" foes="111000" cont="0"/>
        <request index="1" response="111000" foes="111000" cont="0"/>
        <request index="2" response="111000" foes="111000" cont="0"/>
        <request index="3" response="000000" foes="000111" cont="0"/>
        <request index="4" response="000000" foes="000111" cont="0"/>
        <request index="5" response="000000" foes="000111" cont="0"/>
    </junction>
    <junction id="gneJ6" type="dead_end" x="238.72" y="132.20" incLanes="gneE4_0 gneE4_1 gneE4_2" intLanes="" shape="236.66,95.20 236.68,104.80" customShape="1"/>
    <junction id="gneJ8" type="dead_end" x="39.23" y="75.98" incLanes="" intLanes="" shape="38.42,77.81 40.04,74.15"/>

    <connection from="gneE3" to="gneE4" fromLane="0" toLane="0" via=":gneJ5_3_0" dir="s" state="M"/>
    <connection from="gneE3" to="gneE4" fromLane="1" toLane="1" via=":gneJ5_3_1" dir="s" state="M"/>
    <connection from="gneE3" to="gneE4" fromLane="2" toLane="2" via=":gneJ5_3_2" dir="s" state="M"/>
    <connection from="gneE6" to="gneE4" fromLane="0" toLane="0" via=":gneJ5_0_0" dir="s" state="m"/>
    <connection from="gneE6" to="gneE4" fromLane="0" toLane="1" via=":gneJ5_0_1" dir="s" state="m"/>
    <connection from="gneE6" to="gneE4" fromLane="0" toLane="2" via=":gneJ5_0_2" dir="s" state="m"/>

    <connection from=":gneJ5_0" to="gneE4" fromLane="0" toLane="0" dir="s" state="M"/>
    <connection from=":gneJ5_0" to="gneE4" fromLane="1" toLane="1" dir="s" state="M"/>
    <connection from=":gneJ5_0" to="gneE4" fromLane="2" toLane="2" dir="s" state="M"/>
    <connection from=":gneJ5_3" to="gneE4" fromLane="0" toLane="0" dir="s" state="M"/>
    <connection from=":gneJ5_3" to="gneE4" fromLane="1" toLane="1" dir="s" state="M"/>
    <connection from=":gneJ5_3" to="gneE4" fromLane="2" toLane="2" dir="s" state="M"/>

</net>
