<?xml version="1.0" encoding="UTF-8"?>

<!-- generated on 2022-07-11 17:14:31 by Eclipse SUMO netedit Version 1.10.0
<configuration xmlns:xsi="http://www.w3.org/2001/XMLSchema-instance" xsi:noNamespaceSchemaLocation="http://sumo.dlr.de/xsd/netconvertConfiguration.xsd">

    <input>
        <sumo-net-file value="scenarios/eval_scenarios/intersection/1_to_3lane_left_turn_c/map.net.xml"/>
    </input>

    <output>
        <output-file value="scenarios/eval_scenarios/intersection/1_to_3lane_left_turn_c/map.net.xml"/>
    </output>

    <processing>
        <geometry.min-radius.fix.railways value="false"/>
        <geometry.max-grade.fix value="false"/>
        <offset.disable-normalization value="true"/>
        <lefthand value="false"/>
    </processing>

    <junctions>
        <no-turnarounds value="true"/>
        <junctions.corner-detail value="5"/>
        <junctions.limit-turn-speed value="5.5"/>
        <rectangular-lane-cut value="false"/>
    </junctions>

    <pedestrian>
        <walkingareas value="false"/>
    </pedestrian>

    <report>
        <aggregate-warnings value="5"/>
    </report>

</configuration>
-->

<net version="1.9" junctionCornerDetail="5" limitTurnSpeed="5.50" xmlns:xsi="http://www.w3.org/2001/XMLSchema-instance" xsi:noNamespaceSchemaLocation="http://sumo.dlr.de/xsd/net_file.xsd">

    <location netOffset="-630882.85,-4856133.12" convBoundary="-40.88,-40.32,67.38,45.47" origBoundary="-79.371708,43.846679,-79.369237,43.847436" projParameter="+proj=utm +zone=17 +ellps=WGS84 +datum=WGS84 +units=m +no_defs"/>

    <type id="highway.bridleway" priority="1" numLanes="1" speed="2.78" allow="pedestrian" oneway="1" width="2.00"/>
    <type id="highway.bus_guideway" priority="1" numLanes="1" speed="27.78" allow="bus" oneway="1"/>
    <type id="highway.cycleway" priority="1" numLanes="1" speed="8.33" allow="bicycle" oneway="1" width="1.00"/>
    <type id="highway.footway" priority="1" numLanes="1" speed="2.78" allow="pedestrian" oneway="1" width="2.00"/>
    <type id="highway.ford" priority="1" numLanes="1" speed="2.78" allow="army" oneway="1"/>
    <type id="highway.living_street" priority="2" numLanes="1" speed="2.78" disallow="tram rail_urban rail rail_electric ship" oneway="1"/>
    <type id="highway.motorway" priority="14" numLanes="2" speed="39.44" allow="private emergency authority army vip passenger hov taxi bus coach delivery truck trailer motorcycle evehicle custom1 custom2" oneway="1"/>
    <type id="highway.motorway_link" priority="9" numLanes="1" speed="22.22" allow="private emergency authority army vip passenger hov taxi bus coach delivery truck trailer motorcycle evehicle custom1 custom2" oneway="1"/>
    <type id="highway.path" priority="1" numLanes="1" speed="2.78" allow="pedestrian bicycle" oneway="1" width="2.00"/>
    <type id="highway.pedestrian" priority="1" numLanes="1" speed="2.78" allow="pedestrian" oneway="1" width="2.00"/>
    <type id="highway.primary" priority="12" numLanes="2" speed="27.78" disallow="tram rail_urban rail rail_electric ship" oneway="1"/>
    <type id="highway.primary_link" priority="7" numLanes="1" speed="22.22" disallow="tram rail_urban rail rail_electric ship" oneway="1"/>
    <type id="highway.raceway" priority="15" numLanes="2" speed="83.33" allow="vip" oneway="1"/>
    <type id="highway.residential" priority="3" numLanes="1" speed="13.89" disallow="tram rail_urban rail rail_electric ship" oneway="1"/>
    <type id="highway.secondary" priority="11" numLanes="2" speed="27.78" disallow="tram rail_urban rail rail_electric ship" oneway="1"/>
    <type id="highway.secondary_link" priority="6" numLanes="1" speed="22.22" disallow="tram rail_urban rail rail_electric ship" oneway="1"/>
    <type id="highway.service" priority="1" numLanes="1" speed="5.56" allow="pedestrian delivery bicycle" oneway="1"/>
    <type id="highway.stairs" priority="1" numLanes="1" speed="1.39" allow="pedestrian" oneway="1" width="2.00"/>
    <type id="highway.step" priority="1" numLanes="1" speed="1.39" allow="pedestrian" oneway="1" width="2.00"/>
    <type id="highway.steps" priority="1" numLanes="1" speed="1.39" allow="pedestrian" oneway="1" width="2.00"/>
    <type id="highway.tertiary" priority="10" numLanes="1" speed="22.22" disallow="tram rail_urban rail rail_electric ship" oneway="1"/>
    <type id="highway.tertiary_link" priority="5" numLanes="1" speed="22.22" disallow="tram rail_urban rail rail_electric ship" oneway="1"/>
    <type id="highway.track" priority="1" numLanes="1" speed="5.56" disallow="tram rail_urban rail rail_electric ship" oneway="1"/>
    <type id="highway.trunk" priority="13" numLanes="2" speed="27.78" disallow="pedestrian bicycle tram rail_urban rail rail_electric ship" oneway="1"/>
    <type id="highway.trunk_link" priority="8" numLanes="1" speed="22.22" disallow="pedestrian bicycle tram rail_urban rail rail_electric ship" oneway="1"/>
    <type id="highway.unclassified" priority="4" numLanes="1" speed="13.89" disallow="tram rail_urban rail rail_electric ship" oneway="1"/>
    <type id="highway.unsurfaced" priority="1" numLanes="1" speed="8.33" disallow="tram rail_urban rail rail_electric ship" oneway="1"/>
    <type id="railway.light_rail" priority="19" numLanes="1" speed="27.78" allow="rail_urban" oneway="1"/>
    <type id="railway.preserved" priority="16" numLanes="1" speed="27.78" allow="rail" oneway="1"/>
    <type id="railway.rail" priority="20" numLanes="1" speed="83.33" allow="rail rail_electric" oneway="1"/>
    <type id="railway.subway" priority="18" numLanes="1" speed="27.78" allow="rail_urban" oneway="1"/>
    <type id="railway.tram" priority="17" numLanes="1" speed="13.89" allow="tram" oneway="1"/>

    <edge id=":junction-intersection_0" function="internal">
        <lane id=":junction-intersection_0_0" index="0" speed="9.29" length="19.20" shape="7.27,20.24 3.43,15.33 -0.45,12.52 -4.37,11.82 -8.34,13.21"/>
    </edge>
    <edge id=":junction-intersection_1" function="internal">
        <lane id=":junction-intersection_1_0" index="0" speed="13.00" length="35.96" shape="7.27,20.24 2.88,12.25 -1.69,2.55 -5.70,-6.39 -8.39,-12.11"/>
    </edge>
    <edge id=":junction-intersection_2" function="internal">
        <lane id=":junction-intersection_2_0" index="0" speed="10.28" length="31.22" shape="9.96,18.51 6.18,10.27 6.17,3.32 10.11,-1.91 18.19,-5.02"/>
    </edge>
    <edge id=":junction-intersection_3" function="internal">
        <lane id=":junction-intersection_3_0" index="0" speed="7.25" length="14.86" shape="19.95,4.42 15.84,5.80 13.70,8.03 13.54,11.12 15.35,15.06"/>
    </edge>
    <edge id=":junction-intersection_4" function="internal">
        <lane id=":junction-intersection_4_0" index="0" speed="13.00" length="30.71" shape="19.95,4.42 11.17,5.85 5.08,6.93 -0.64,8.95 -8.34,13.21"/>
        <lane id=":junction-intersection_4_1" index="1" speed="13.00" length="30.71" shape="19.37,1.27 10.41,2.74 4.11,3.86 -1.81,5.95 -9.67,10.27"/>
        <lane id=":junction-intersection_4_2" index="2" speed="13.00" length="30.71" shape="18.78,-1.87 9.73,-0.34 3.22,0.93 -2.95,3.10 -11.00,7.34"/>
    </edge>
    <edge id=":junction-intersection_7" function="internal">
        <lane id=":junction-intersection_7_0" index="0" speed="13.00" length="31.23" shape="18.78,-1.87 9.72,-1.14 2.17,-2.60 -3.86,-6.26 -8.39,-12.11"/>
    </edge>
    <edge id=":junction-intersection_8" function="internal">
        <lane id=":junction-intersection_8_0" index="0" speed="12.02" length="25.36" shape="-5.57,-13.64 -2.32,-9.96 2.63,-7.82 9.27,-7.22 17.61,-8.16"/>
    </edge>
    <edge id=":junction-intersection_9" function="internal">
        <lane id=":junction-intersection_9_0" index="0" speed="13.00" length="35.47" shape="-5.57,-13.64 12.66,16.78"/>
    </edge>
    <edge id=":junction-intersection_10" function="internal">
        <lane id=":junction-intersection_10_0" index="0" speed="10.49" length="24.55" shape="-5.57,-13.64 -3.16,-7.25 -3.26,-1.62 -5.87,3.24 -11.00,7.34"/>
    </edge>
    <edge id=":junction-intersection_11" function="internal">
        <lane id=":junction-intersection_11_0" index="0" speed="8.69" length="16.49" shape="-13.65,1.50 -9.73,-1.46 -7.54,-4.71 -7.09,-8.27 -8.39,-12.11"/>
    </edge>
    <edge id=":junction-intersection_12" function="internal">
        <lane id=":junction-intersection_12_0" index="0" speed="13.00" length="32.47" shape="-13.65,1.50 -6.51,-1.88 1.53,-4.54 9.79,-6.59 17.61,-8.16"/>
        <lane id=":junction-intersection_12_1" index="1" speed="13.00" length="32.47" shape="-12.32,4.43 -5.30,1.08 2.48,-1.50 10.49,-3.48 18.19,-5.02"/>
    </edge>
    <edge id=":junction-intersection_14" function="internal">
        <lane id=":junction-intersection_14_0" index="0" speed="11.79" length="31.04" shape="-12.32,4.43 -6.11,2.48 0.12,3.89 6.38,8.65 12.66,16.78"/>
    </edge>

    <edge id="E1" from="junction-intersection" to="junction-north" priority="-1">
        <lane id="E1_0" index="0" speed="13.00" length="31.67" shape="15.35,15.06 32.44,41.72"/>
        <lane id="E1_1" index="1" speed="13.00" length="31.67" shape="12.66,16.78 29.75,43.45"/>
    </edge>
    <edge id="E2" from="junction-north" to="junction-intersection" priority="-1">
        <lane id="E2_0" index="0" speed="13.00" length="31.67" shape="24.36,46.90 7.27,20.24"/>
        <lane id="E2_1" index="1" speed="13.00" length="31.67" shape="27.05,45.17 9.96,18.51"/>
    </edge>
    <edge id="E3" from="junction-east" to="junction-intersection" priority="-1">
        <lane id="E3_0" index="0" speed="13.00" length="49.74" shape="68.85,-4.70 19.95,4.42"/>
        <lane id="E3_1" index="1" speed="13.00" length="49.74" shape="68.26,-7.84 19.37,1.27"/>
        <lane id="E3_2" index="2" speed="13.00" length="49.74" shape="67.67,-10.99 18.78,-1.87"/>
    </edge>
    <edge id="E4" from="junction-intersection" to="junction-east" priority="-1">
        <lane id="E4_0" index="0" speed="13.00" length="49.74" shape="17.61,-8.16 66.50,-17.28"/>
        <lane id="E4_1" index="1" speed="13.00" length="49.74" shape="18.19,-5.02 67.09,-14.13"/>
    </edge>
    <edge id="E5" from="junction-intersection" to="junction-west" priority="-1" shape="0.00,0.00 -4.25,1.93 -6.29,2.93 -8.27,3.97 -10.19,5.02 -12.06,6.11 -13.87,7.22 -15.62,8.36 -17.32,9.52 -18.96,10.71 -20.54,11.93 -22.06,13.18 -23.53,14.45 -24.94,15.75 -26.29,17.07 -27.59,18.42 -28.83,19.80 -30.01,21.20 -31.13,22.64 -32.20,24.09 -33.21,25.58 -34.16,27.09 -35.06,28.63 -35.90,30.19 -36.68,31.78 -37.41,33.40 -38.07,35.04 -38.68,36.72 -39.24,38.41 -39.73,40.14 -40.17,41.89 -40.56,43.67 -40.88,45.47">
        <lane id="E5_0" index="0" speed="13.00" length="46.28" shape="-8.34,13.21 -9.60,13.98 -11.18,15.02 -12.72,16.06 -14.17,17.11 -15.55,18.19 -16.90,19.30 -18.20,20.42 -19.43,21.55 -20.61,22.71 -21.73,23.87 -22.80,25.05 -23.79,26.23 -24.75,27.47 -25.67,28.71 -26.51,29.96 -27.32,31.24 -28.08,32.55 -28.79,33.85 -29.44,35.19 -30.05,36.54 -30.60,37.90 -31.12,39.34 -31.59,40.76 -32.00,42.21 -32.38,43.72 -32.71,45.23 -33.00,46.87"/>
        <lane id="E5_1" index="1" speed="13.00" length="46.28" shape="-9.67,10.27 -11.31,11.28 -12.96,12.35 -14.56,13.45 -16.08,14.55 -17.55,15.68 -18.97,16.85 -20.33,18.03 -21.64,19.23 -22.88,20.45 -24.08,21.69 -25.21,22.95 -26.28,24.22 -27.30,25.54 -28.28,26.86 -29.19,28.21 -30.06,29.58 -30.87,30.98 -31.63,32.39 -32.34,33.82 -32.99,35.28 -33.59,36.75 -34.15,38.29 -34.65,39.82 -35.09,41.38 -35.50,42.99 -35.85,44.60 -36.15,46.31"/>
        <lane id="E5_2" index="2" speed="13.00" length="46.28" shape="-11.00,7.34 -11.24,7.48 -13.02,8.57 -14.73,9.69 -16.40,10.83 -18.00,11.99 -19.54,13.18 -21.03,14.40 -22.46,15.64 -23.84,16.91 -25.15,18.20 -26.42,19.51 -27.62,20.85 -28.77,22.21 -29.85,23.61 -30.89,25.01 -31.87,26.46 -32.79,27.92 -33.66,29.41 -34.48,30.92 -35.23,32.46 -35.94,34.03 -36.58,35.61 -37.17,37.24 -37.71,38.88 -38.18,40.55 -38.61,42.26 -38.99,43.98 -39.30,45.75"/>
    </edge>
    <edge id="E6" from="junction-west" to="junction-intersection" priority="-1" shape="-40.88,45.47 -40.55,43.67 -40.16,41.89 -39.71,40.14 -39.21,38.41 -38.65,36.71 -38.04,35.04 -37.36,33.40 -36.63,31.78 -35.85,30.19 -35.01,28.62 -34.11,27.08 -33.15,25.57 -32.14,24.09 -31.07,22.63 -29.94,21.20 -28.76,19.79 -27.52,18.42 -26.23,17.07 -24.88,15.74 -23.47,14.44 -22.00,13.17 -20.48,11.93 -18.90,10.71 -17.27,9.52 -15.57,8.35 -13.83,7.22 -12.02,6.11 -10.16,5.02 -8.24,3.96 -6.27,2.93 -4.23,1.93 -2.15,0.95 0.00,0.00">
        <lane id="E6_0" index="0" speed="13.00" length="53.98" shape="-45.60,44.60 -45.26,42.72 -44.83,40.78 -44.34,38.88 -43.80,36.99 -43.18,35.14 -42.51,33.30 -41.77,31.49 -40.97,29.74 -40.12,28.00 -39.20,26.28 -38.21,24.58 -37.16,22.93 -36.06,21.32 -34.89,19.72 -33.66,18.17 -32.38,16.64 -31.03,15.15 -29.65,13.70 -28.19,12.27 -26.67,10.86 -25.09,9.49 -23.46,8.17 -21.78,6.87 -20.05,5.60 -18.24,4.36 -16.39,3.16 -14.49,1.99 -13.65,1.50"/>
        <lane id="E6_1" index="1" speed="13.00" length="53.98" shape="-42.45,45.18 -42.12,43.35 -41.72,41.52 -41.25,39.72 -40.74,37.94 -40.16,36.19 -39.53,34.46 -38.83,32.76 -38.08,31.10 -37.27,29.46 -36.41,27.84 -35.48,26.25 -34.49,24.69 -33.45,23.17 -32.34,21.66 -31.18,20.19 -29.97,18.74 -28.69,17.33 -27.37,15.95 -25.98,14.58 -24.54,13.25 -23.03,11.94 -21.47,10.68 -19.86,9.43 -18.20,8.21 -16.46,7.02 -14.68,5.87 -12.84,4.74 -12.32,4.43"/>
    </edge>
    <edge id="E7" from="junction-intersection" to="junction-south" priority="-1">
        <lane id="E7_0" index="0" speed="13.00" length="31.22" shape="-8.39,-12.11 -23.27,-39.56"/>
    </edge>
    <edge id="E8" from="junction-south" to="junction-intersection" priority="-1">
        <lane id="E8_0" index="0" speed="13.00" length="31.22" shape="-20.45,-41.08 -5.57,-13.64"/>
    </edge>

    <junction id="junction-east" type="dead_end" x="67.38" y="-12.56" incLanes="E4_0 E4_1" intLanes="" shape="67.38,-12.56 66.21,-18.85 67.38,-12.56"/>
    <junction id="junction-intersection" type="allway_stop" x="0.00" y="0.00" incLanes="E2_0 E2_1 E3_0 E3_1 E3_2 E8_0 E6_0 E6_1" intLanes=":junction-intersection_0_0 :junction-intersection_1_0 :junction-intersection_2_0 :junction-intersection_3_0 :junction-intersection_4_0 :junction-intersection_4_1 :junction-intersection_4_2 :junction-intersection_7_0 :junction-intersection_8_0 :junction-intersection_9_0 :junction-intersection_10_0 :junction-intersection_11_0 :junction-intersection_12_0 :junction-intersection_12_1 :junction-intersection_14_0" shape="5.92,21.10 16.70,14.19 15.60,12.09 15.17,10.29 15.43,8.77 16.36,7.55 17.96,6.63 20.25,5.99 17.31,-9.74 11.94,-8.98 7.28,-8.83 3.34,-9.30 0.12,-10.38 -2.39,-12.09 -4.17,-14.40 -9.79,-11.35 -8.92,-9.19 -8.70,-7.14 -9.13,-5.19 -10.21,-3.34 -11.94,-1.60 -14.32,0.04 -7.67,14.68 -5.40,13.70 -3.14,13.54 -0.87,14.20 1.39,15.68 3.66,17.98" radius="8.00">
        <request index="0"  response="000000001110000" foes="000000001110000" cont="0"/>
        <request index="1"  response="111110011110000" foes="111110011110000" cont="0"/>
        <request index="2"  response="111001011110000" foes="111001011110000" cont="0"/>
        <request index="3"  response="000000000000000" foes="000000000000000" cont="0"/>
        <request index="4"  response="100011000000111" foes="100011000000111" cont="0"/>
        <request index="5"  response="100011000000111" foes="100011000000111" cont="0"/>
        <request index="6"  response="100011000000111" foes="100011000000111" cont="0"/>
        <request index="7"  response="011111000000110" foes="011111000000110" cont="0"/>
        <request index="8"  response="011000000000000" foes="011000000000000" cont="0"/>
        <request index="9"  response="111000011110100" foes="111000011110100" cont="0"/>
        <request index="10" response="111000011110010" foes="111000011110010" cont="0"/>
        <request index="11" response="000000010000010" foes="000000010000010" cont="0"/>
        <request index="12" response="000011110000110" foes="000011110000110" cont="0"/>
        <request index="13" response="000011110000110" foes="000011110000110" cont="0"/>
        <request index="14" response="000011001110110" foes="000011001110110" cont="0"/>
    </junction>
    <junction id="junction-north" type="dead_end" x="28.40" y="44.31" incLanes="E1_0 E1_1" intLanes="" shape="28.40,44.31 33.79,40.86 28.40,44.31"/>
    <junction id="junction-south" type="dead_end" x="-21.86" y="-40.32" incLanes="E7_0" intLanes="" shape="-21.86,-40.32 -24.67,-38.79 -21.86,-40.32"/>
    <junction id="junction-west" type="dead_end" x="-40.88" y="45.47" incLanes="E5_0 E5_1 E5_2" intLanes="" shape="-40.88,45.47 -47.18,44.32 -31.43,47.14"/>

    <connection from="E2" to="E5" fromLane="0" toLane="0" via=":junction-intersection_0_0" dir="r" state="w"/>
    <connection from="E2" to="E7" fromLane="0" toLane="0" via=":junction-intersection_1_0" dir="s" state="w"/>
    <connection from="E2" to="E4" fromLane="1" toLane="1" via=":junction-intersection_2_0" dir="l" state="w"/>
    <connection from="E3" to="E1" fromLane="0" toLane="0" via=":junction-intersection_3_0" dir="r" state="w"/>
    <connection from="E3" to="E5" fromLane="0" toLane="0" via=":junction-intersection_4_0" dir="s" state="w"/>
    <connection from="E3" to="E5" fromLane="1" toLane="1" via=":junction-intersection_4_1" dir="s" state="w"/>
    <connection from="E3" to="E5" fromLane="2" toLane="2" via=":junction-intersection_4_2" dir="s" state="w"/>
    <connection from="E3" to="E7" fromLane="2" toLane="0" via=":junction-intersection_7_0" dir="l" state="w"/>
    <connection from="E6" to="E7" fromLane="0" toLane="0" via=":junction-intersection_11_0" dir="r" state="w"/>
    <connection from="E6" to="E4" fromLane="0" toLane="0" via=":junction-intersection_12_0" dir="s" state="w"/>
    <connection from="E6" to="E4" fromLane="1" toLane="1" via=":junction-intersection_12_1" dir="s" state="w"/>
    <connection from="E6" to="E1" fromLane="1" toLane="1" via=":junction-intersection_14_0" dir="l" state="w"/>
    <connection from="E8" to="E4" fromLane="0" toLane="0" via=":junction-intersection_8_0" dir="r" state="w"/>
    <connection from="E8" to="E1" fromLane="0" toLane="1" via=":junction-intersection_9_0" dir="s" state="w"/>
    <connection from="E8" to="E5" fromLane="0" toLane="2" via=":junction-intersection_10_0" dir="l" state="w"/>

    <connection from=":junction-intersection_0" to="E5" fromLane="0" toLane="0" dir="r" state="M"/>
    <connection from=":junction-intersection_1" to="E7" fromLane="0" toLane="0" dir="s" state="M"/>
    <connection from=":junction-intersection_2" to="E4" fromLane="0" toLane="1" dir="l" state="M"/>
    <connection from=":junction-intersection_3" to="E1" fromLane="0" toLane="0" dir="r" state="M"/>
    <connection from=":junction-intersection_4" to="E5" fromLane="0" toLane="0" dir="s" state="M"/>
    <connection from=":junction-intersection_4" to="E5" fromLane="1" toLane="1" dir="s" state="M"/>
    <connection from=":junction-intersection_4" to="E5" fromLane="2" toLane="2" dir="s" state="M"/>
    <connection from=":junction-intersection_7" to="E7" fromLane="0" toLane="0" dir="l" state="M"/>
    <connection from=":junction-intersection_8" to="E4" fromLane="0" toLane="0" dir="r" state="M"/>
    <connection from=":junction-intersection_9" to="E1" fromLane="0" toLane="1" dir="s" state="M"/>
    <connection from=":junction-intersection_10" to="E5" fromLane="0" toLane="2" dir="l" state="M"/>
    <connection from=":junction-intersection_11" to="E7" fromLane="0" toLane="0" dir="r" state="M"/>
    <connection from=":junction-intersection_12" to="E4" fromLane="0" toLane="0" dir="s" state="M"/>
    <connection from=":junction-intersection_12" to="E4" fromLane="1" toLane="1" dir="s" state="M"/>
    <connection from=":junction-intersection_14" to="E1" fromLane="0" toLane="1" dir="l" state="M"/>

</net>
