<?xml version="1.0" encoding="UTF-8"?>

<!-- generated on 2022-07-11 21:02:37 by Eclipse SUMO netedit Version 1.10.0
<configuration xmlns:xsi="http://www.w3.org/2001/XMLSchema-instance" xsi:noNamespaceSchemaLocation="http://sumo.dlr.de/xsd/netconvertConfiguration.xsd">

    <input>
        <sumo-net-file value="scenarios/eval_scenarios/merge/single_agent/3lane_curve/map.net.xml"/>
    </input>

    <output>
        <output-file value="scenarios/eval_scenarios/merge/single_agent/3lane_curve/map.net.xml"/>
    </output>

    <processing>
        <geometry.min-radius.fix.railways value="false"/>
        <geometry.max-grade.fix value="false"/>
        <offset.disable-normalization value="true"/>
        <lefthand value="false"/>
    </processing>

    <junctions>
        <no-turnarounds value="true"/>
        <junctions.corner-detail value="5"/>
        <junctions.limit-turn-speed value="5.5"/>
        <rectangular-lane-cut value="false"/>
    </junctions>

    <pedestrian>
        <walkingareas value="false"/>
    </pedestrian>

    <report>
        <aggregate-warnings value="5"/>
    </report>

</configuration>
-->

<net version="1.9" junctionCornerDetail="5" limitTurnSpeed="5.50" xmlns:xsi="http://www.w3.org/2001/XMLSchema-instance" xsi:noNamespaceSchemaLocation="http://sumo.dlr.de/xsd/net_file.xsd">

    <location netOffset="0.00,0.00" convBoundary="39.23,75.98,238.72,173.81" origBoundary="-10000000000.00,-10000000000.00,10000000000.00,10000000000.00" projParameter="!"/>

    <edge id=":gneJ5_0" function="internal">
        <lane id=":gneJ5_0_0" index="0" speed="13.89" length="26.33" shape="82.71,92.57 107.23,99.48"/>
        <lane id=":gneJ5_0_1" index="1" speed="13.89" length="26.33" shape="82.71,92.57 86.71,94.32 91.73,97.25 98.25,100.35 106.74,102.64"/>
        <lane id=":gneJ5_0_2" index="2" speed="13.89" length="26.33" shape="82.71,92.57 86.57,94.81 91.31,98.80 97.64,102.99 106.26,105.80"/>
    </edge>
    <edge id=":gneJ5_3" function="internal">
        <lane id=":gneJ5_3_0" index="0" speed="13.89" length="24.84" shape="82.36,96.80 89.78,96.94 94.85,97.39 99.89,98.22 107.23,99.48"/>
        <lane id=":gneJ5_3_1" index="1" speed="13.89" length="24.84" shape="82.10,100.00 89.45,100.14 94.48,100.58 99.47,101.40 106.74,102.64"/>
        <lane id=":gneJ5_3_2" index="2" speed="13.89" length="24.84" shape="81.83,103.20 89.12,103.33 94.10,103.77 99.05,104.57 106.26,105.80"/>
    </edge>

    <edge id="gneE3" from="gneJ4" to="gneJ5" priority="-1" spreadType="center">
        <lane id="gneE3_0" index="0" speed="13.89" length="39.75" shape="42.35,96.80 82.36,96.80"/>
        <lane id="gneE3_1" index="1" speed="13.89" length="39.75" shape="42.35,100.00 82.10,100.00"/>
        <lane id="gneE3_2" index="2" speed="13.89" length="39.75" shape="42.35,103.20 81.83,103.20"/>
    </edge>
    <edge id="gneE4" from="gneJ5" to="gneJ10" priority="-1" spreadType="center" shape="87.87,100.00 90.43,100.31 92.97,100.64 95.49,100.97 98.00,101.32 100.48,101.67 102.93,102.04 105.37,102.42 107.79,102.81 110.19,103.21 112.57,103.62 114.92,104.04 117.26,104.47 119.58,104.91 121.87,105.36 124.15,105.83 126.40,106.30 128.63,106.79 130.85,107.28 133.04,107.79 135.21,108.31 137.36,108.83 139.49,109.37 141.60,109.92 143.69,110.48 145.76,111.05 147.81,111.64 149.84,112.23 151.85,112.83 153.83,113.45 155.80,114.07 157.75,114.71 159.67,115.35 161.58,116.01 163.46,116.68 165.33,117.36 167.17,118.05 168.99,118.75 170.80,119.46 172.58,120.18 174.34,120.91 176.08,121.66 177.80,122.41 179.50,123.17 181.18,123.95 182.84,124.74 184.47,125.53 186.09,126.34 187.69,127.16 189.27,127.99 190.82,128.83 192.36,129.68 193.87,130.54 195.37,131.41 196.84,132.29 198.29,133.19 199.73,134.09 201.14,135.01 202.53,135.93 203.90,136.87 205.25,137.82 206.58,138.78 207.89,139.74 209.18,140.72 210.45,141.71 211.70,142.72 212.92,143.73 214.13,144.75 215.32,145.78 216.48,146.83 217.63,147.88 218.75,148.95 219.86,150.03 220.94,151.11 222.00,152.21 223.05,153.32 224.07,154.44 225.07,155.57 226.05,156.71 227.01,157.86 227.95,159.02 228.87,160.20 229.77,161.38 230.65,162.57 231.51,163.78 232.34,165.00 233.16,166.22 233.96,167.46 234.73,168.71 235.49,169.97 236.22,171.24 236.94,172.52 237.63,173.81">
        <lane id="gneE4_0" index="0" speed="13.89" length="154.36" shape="107.23,99.48 108.31,99.65 110.72,100.05 113.12,100.47 115.49,100.89 117.85,101.32 120.19,101.77 122.50,102.22 124.80,102.70 127.07,103.17 129.32,103.66 131.56,104.16 133.78,104.68 135.96,105.20 138.13,105.72 140.29,106.27 142.42,106.83 144.53,107.39 146.63,107.97 148.70,108.57 150.74,109.16 152.79,109.77 154.79,110.40 156.78,111.02 158.75,111.67 160.70,112.32 162.64,112.99 164.54,113.67 166.44,114.36 168.31,115.06 170.15,115.77 171.98,116.49 173.79,117.22 175.59,117.96 177.35,118.72 179.09,119.48 180.83,120.26 182.54,121.05 184.23,121.86 185.88,122.66 187.54,123.48 189.16,124.32 190.78,125.17 192.36,126.02 193.92,126.89 195.46,127.77 196.99,128.65 198.51,129.56 199.98,130.47 201.45,131.39 202.90,132.34 204.32,133.28 205.73,134.24 207.11,135.21 208.46,136.19 209.80,137.18 211.13,138.18 212.44,139.20 213.73,140.24 214.97,141.27 216.21,142.32 217.44,143.38 218.63,144.46 219.81,145.54 220.97,146.65 222.11,147.75 223.22,148.87 224.31,150.00 225.40,151.14 226.45,152.30 227.48,153.47 228.49,154.64 229.48,155.83 230.46,157.03 231.40,158.25 232.33,159.46 233.24,160.69 234.14,161.95 234.99,163.21 235.83,164.46 236.67,165.75 237.46,167.04 238.25,168.35 239.00,169.66 239.75,170.98 240.45,172.30"/>
        <lane id="gneE4_1" index="1" speed="13.89" length="154.36" shape="106.74,102.64 107.79,102.81 110.19,103.21 112.57,103.62 114.92,104.04 117.26,104.47 119.58,104.91 121.87,105.36 124.15,105.83 126.40,106.30 128.63,106.79 130.85,107.28 133.04,107.79 135.21,108.31 137.36,108.83 139.49,109.37 141.60,109.92 143.69,110.48 145.76,111.05 147.81,111.64 149.84,112.23 151.85,112.83 153.83,113.45 155.80,114.07 157.75,114.71 159.67,115.35 161.58,116.01 163.46,116.68 165.33,117.36 167.17,118.05 168.99,118.75 170.80,119.46 172.58,120.18 174.34,120.91 176.08,121.66 177.80,122.41 179.50,123.17 181.18,123.95 182.84,124.74 184.47,125.53 186.09,126.34 187.69,127.16 189.27,127.99 190.82,128.83 192.36,129.68 193.87,130.54 195.37,131.41 196.84,132.29 198.29,133.19 199.73,134.09 201.14,135.01 202.53,135.93 203.90,136.87 205.25,137.82 206.58,138.78 207.89,139.74 209.18,140.72 210.45,141.71 211.70,142.72 212.92,143.73 214.13,144.75 215.32,145.78 216.48,146.83 217.63,147.88 218.75,148.95 219.86,150.03 220.94,151.11 222.00,152.21 223.05,153.32 224.07,154.44 225.07,155.57 226.05,156.71 227.01,157.86 227.95,159.02 228.87,160.20 229.77,161.38 230.65,162.57 231.51,163.78 232.34,165.00 233.16,166.22 233.96,167.46 234.73,168.71 235.49,169.97 236.22,171.24 236.94,172.52 237.63,173.81"/>
        <lane id="gneE4_2" index="2" speed="13.89" length="154.36" shape="106.26,105.80 107.27,105.97 109.66,106.37 112.02,106.77 114.35,107.19 116.67,107.62 118.97,108.05 121.24,108.50 123.50,108.96 125.73,109.43 127.94,109.92 130.14,110.40 132.30,110.90 134.46,111.42 136.59,111.94 138.69,112.47 140.78,113.01 142.85,113.57 144.89,114.13 146.92,114.71 148.94,115.30 150.91,115.89 152.87,116.50 154.82,117.12 156.75,117.75 158.64,118.38 160.52,119.03 162.38,119.69 164.22,120.36 166.03,121.04 167.83,121.73 169.62,122.43 171.37,123.14 173.09,123.86 174.81,124.60 176.51,125.34 178.17,126.08 179.82,126.85 181.45,127.62 183.06,128.40 184.64,129.20 186.22,130.00 187.76,130.81 189.28,131.64 190.80,132.47 192.28,133.31 193.75,134.17 195.17,135.02 196.60,135.91 198.01,136.79 199.38,137.68 200.74,138.58 202.07,139.50 203.39,140.43 204.70,141.37 205.98,142.30 207.23,143.26 208.46,144.22 209.67,145.20 210.87,146.19 212.05,147.18 213.20,148.18 214.33,149.20 215.45,150.22 216.53,151.25 217.61,152.31 218.66,153.35 219.69,154.42 220.70,155.50 221.69,156.58 222.66,157.67 223.61,158.78 224.54,159.89 225.44,161.01 226.34,162.15 227.21,163.30 228.06,164.45 228.88,165.61 229.69,166.79 230.49,167.98 231.25,169.17 232.00,170.38 232.73,171.59 233.44,172.82 234.13,174.06 234.81,175.32"/>
    </edge>
    <edge id="gneE6" from="gneJ8" to="gneJ5" priority="-1" spreadType="center" shape="39.23,75.98 42.33,77.35 45.33,78.66 48.24,79.92 51.05,81.12 53.77,82.26 56.40,83.35 58.94,84.39 61.38,85.36 63.72,86.28 65.98,87.15 68.13,87.96 70.20,88.71 72.17,89.41 74.05,90.05 75.83,90.64 77.52,91.16 79.12,91.64 80.62,92.06 82.03,92.42 83.35,92.72 84.57,92.97 85.70,93.17 86.73,93.30 87.67,93.38 88.52,93.41">
        <lane id="gneE6_0" index="0" speed="13.89" length="46.59" width="4.00" shape="39.23,75.98 42.33,77.35 45.33,78.66 48.24,79.92 51.05,81.12 53.77,82.26 56.40,83.35 58.94,84.39 61.38,85.36 63.72,86.28 65.98,87.15 68.13,87.96 70.20,88.71 72.17,89.41 74.05,90.05 75.83,90.64 77.52,91.16 79.12,91.64 80.62,92.06 82.03,92.42 82.71,92.57"/>
    </edge>

    <junction id="gneJ10" type="dead_end" x="237.63" y="173.81" incLanes="gneE4_0 gneE4_1 gneE4_2" intLanes="" shape="241.86,171.55 233.40,176.07"/>
    <junction id="gneJ4" type="dead_end" x="42.35" y="100.00" incLanes="" intLanes="" shape="42.35,104.80 42.35,95.20"/>
    <junction id="gneJ5" type="priority" x="87.87" y="100.00" incLanes="gneE6_0 gneE3_0 gneE3_1 gneE3_2" intLanes=":gneJ5_0_0 :gneJ5_0_1 :gneJ5_0_2 :gneJ5_3_0 :gneJ5_3_1 :gneJ5_3_2" shape="105.99,107.56 107.47,97.88 101.47,96.38 94.23,94.07 82.84,90.96 81.70,104.80" customShape="1" fringe="outer">
        <request index="0" response="111000" foes="111000" cont="0"/>
        <request index="1" response="111000" foes="111000" cont="0"/>
        <request index="2" response="111000" foes="111000" cont="0"/>
        <request index="3" response="000000" foes="000111" cont="0"/>
        <request index="4" response="000000" foes="000111" cont="0"/>
        <request index="5" response="000000" foes="000111" cont="0"/>
    </junction>
    <junction id="gneJ6" type="dead_end" x="238.72" y="132.20" incLanes="" intLanes="" shape="236.66,95.20 236.68,104.80" customShape="1"/>
    <junction id="gneJ8" type="dead_end" x="39.23" y="75.98" incLanes="" intLanes="" shape="38.42,77.81 40.04,74.15"/>

    <connection from="gneE3" to="gneE4" fromLane="0" toLane="0" via=":gneJ5_3_0" dir="s" state="M"/>
    <connection from="gneE3" to="gneE4" fromLane="1" toLane="1" via=":gneJ5_3_1" dir="s" state="M"/>
    <connection from="gneE3" to="gneE4" fromLane="2" toLane="2" via=":gneJ5_3_2" dir="s" state="M"/>
    <connection from="gneE6" to="gneE4" fromLane="0" toLane="0" via=":gneJ5_0_0" dir="s" state="m"/>
    <connection from="gneE6" to="gneE4" fromLane="0" toLane="1" via=":gneJ5_0_1" dir="s" state="m"/>
    <connection from="gneE6" to="gneE4" fromLane="0" toLane="2" via=":gneJ5_0_2" dir="s" state="m"/>

    <connection from=":gneJ5_0" to="gneE4" fromLane="0" toLane="0" dir="s" state="M"/>
    <connection from=":gneJ5_0" to="gneE4" fromLane="1" toLane="1" dir="s" state="M"/>
    <connection from=":gneJ5_0" to="gneE4" fromLane="2" toLane="2" dir="s" state="M"/>
    <connection from=":gneJ5_3" to="gneE4" fromLane="0" toLane="0" dir="s" state="M"/>
    <connection from=":gneJ5_3" to="gneE4" fromLane="1" toLane="1" dir="s" state="M"/>
    <connection from=":gneJ5_3" to="gneE4" fromLane="2" toLane="2" dir="s" state="M"/>

</net>
