<?xml version="1.0" encoding="UTF-8"?>

<!-- generated on 2022-07-11 15:37:25 by Eclipse SUMO netedit Version 1.10.0
<configuration xmlns:xsi="http://www.w3.org/2001/XMLSchema-instance" xsi:noNamespaceSchemaLocation="http://sumo.dlr.de/xsd/netconvertConfiguration.xsd">

    <input>
        <sumo-net-file value="scenarios/eval_scenarios/merge/single_agent/4lane/map.net.xml"/>
    </input>

    <output>
        <output-file value="scenarios/eval_scenarios/merge/single_agent/4lane/map.net.xml"/>
    </output>

    <processing>
        <geometry.min-radius.fix.railways value="false"/>
        <geometry.max-grade.fix value="false"/>
        <offset.disable-normalization value="true"/>
        <lefthand value="false"/>
    </processing>

    <junctions>
        <no-turnarounds value="true"/>
        <junctions.corner-detail value="5"/>
        <junctions.limit-turn-speed value="5.5"/>
        <rectangular-lane-cut value="false"/>
    </junctions>

    <pedestrian>
        <walkingareas value="false"/>
    </pedestrian>

    <report>
        <aggregate-warnings value="5"/>
    </report>

</configuration>
-->

<net version="1.9" junctionCornerDetail="5" limitTurnSpeed="5.50" xmlns:xsi="http://www.w3.org/2001/XMLSchema-instance" xsi:noNamespaceSchemaLocation="http://sumo.dlr.de/xsd/net_file.xsd">

    <location netOffset="0.00,0.00" convBoundary="39.23,75.98,236.67,100.00" origBoundary="-10000000000.00,-10000000000.00,10000000000.00,10000000000.00" projParameter="!"/>

    <edge id=":gneJ5_0" function="internal">
        <lane id=":gneJ5_0_0" index="0" speed="13.89" length="32.53" shape="85.74,91.66 90.48,92.49 97.23,93.68 105.98,94.74 116.70,95.20"/>
        <lane id=":gneJ5_0_1" index="1" speed="13.89" length="32.53" shape="85.74,91.66 90.44,92.99 97.14,95.28 105.89,97.44 116.72,98.40"/>
        <lane id=":gneJ5_0_2" index="2" speed="13.89" length="32.53" shape="85.74,91.66 90.38,93.49 96.99,96.88 105.73,100.14 116.74,101.60"/>
        <lane id=":gneJ5_0_3" index="3" speed="13.89" length="32.53" shape="85.74,91.66 90.31,93.99 96.79,98.48 105.51,102.84 116.77,104.80"/>
    </edge>
    <edge id=":gneJ5_4" function="internal">
        <lane id=":gneJ5_4_0" index="0" speed="13.89" length="31.00" shape="85.74,95.20 116.70,95.20"/>
        <lane id=":gneJ5_4_1" index="1" speed="13.89" length="31.00" shape="85.73,98.40 116.72,98.40"/>
        <lane id=":gneJ5_4_2" index="2" speed="13.89" length="31.00" shape="85.73,101.60 116.74,101.60"/>
        <lane id=":gneJ5_4_3" index="3" speed="13.89" length="31.00" shape="85.73,104.80 116.77,104.80"/>
    </edge>

    <edge id="gneE3" from="gneJ4" to="gneJ5" priority="-1" spreadType="center">
        <lane id="gneE3_0" index="0" speed="13.89" length="43.38" shape="42.35,95.20 85.74,95.20"/>
        <lane id="gneE3_1" index="1" speed="13.89" length="43.38" shape="42.35,98.40 85.73,98.40"/>
        <lane id="gneE3_2" index="2" speed="13.89" length="43.38" shape="42.35,101.60 85.73,101.60"/>
        <lane id="gneE3_3" index="3" speed="13.89" length="43.38" shape="42.35,104.80 85.73,104.80"/>
    </edge>
    <edge id="gneE4" from="gneJ5" to="gneJ6" priority="-1" spreadType="center">
        <lane id="gneE4_0" index="0" speed="13.89" length="119.94" shape="116.70,95.20 236.67,95.20"/>
        <lane id="gneE4_1" index="1" speed="13.89" length="119.94" shape="116.72,98.40 236.67,98.40"/>
        <lane id="gneE4_2" index="2" speed="13.89" length="119.94" shape="116.74,101.60 236.67,101.60"/>
        <lane id="gneE4_3" index="3" speed="13.89" length="119.94" shape="116.77,104.80 236.68,104.80"/>
    </edge>
    <edge id="gneE6" from="gneJ8" to="gneJ5" priority="-1" spreadType="center" shape="39.23,75.98 42.24,77.24 45.18,78.45 48.02,79.60 50.79,80.71 53.47,81.76 56.07,82.76 58.59,83.71 61.02,84.60 63.37,85.45 65.64,86.24 67.82,86.99 69.93,87.68 71.94,88.32 73.88,88.90 75.73,89.44 77.50,89.92 79.19,90.35 80.79,90.73 82.31,91.06 83.75,91.34 85.10,91.57 86.37,91.74 87.56,91.86 88.67,91.93 89.69,91.95">
        <lane id="gneE6_0" index="0" speed="13.89" length="49.18" width="4.00" shape="39.23,75.98 42.24,77.24 45.18,78.45 48.02,79.60 50.79,80.71 53.47,81.76 56.07,82.76 58.59,83.71 61.02,84.60 63.37,85.45 65.64,86.24 67.82,86.99 69.93,87.68 71.94,88.32 73.88,88.90 75.73,89.44 77.50,89.92 79.19,90.35 80.79,90.73 82.31,91.06 83.75,91.34 85.10,91.57 85.74,91.66"/>
    </edge>

    <junction id="gneJ4" type="dead_end" x="42.35" y="100.00" incLanes="" intLanes="" shape="42.35,106.40 42.35,93.60"/>
    <junction id="gneJ5" type="priority" x="89.73" y="100.00" incLanes="gneE6_0 gneE3_0 gneE3_1 gneE3_2 gneE3_3" intLanes=":gneJ5_0_0 :gneJ5_0_1 :gneJ5_0_2 :gneJ5_0_3 :gneJ5_4_0 :gneJ5_4_1 :gneJ5_4_2 :gneJ5_4_3" shape="116.78,106.49 116.69,93.96 104.99,93.15 98.48,92.00 85.74,89.64 85.73,106.40" customShape="1" fringe="outer">
        <request index="0" response="11110000" foes="11110000" cont="0"/>
        <request index="1" response="11110000" foes="11110000" cont="0"/>
        <request index="2" response="11110000" foes="11110000" cont="0"/>
        <request index="3" response="11110000" foes="11110000" cont="0"/>
        <request index="4" response="00000000" foes="00001111" cont="0"/>
        <request index="5" response="00000000" foes="00001111" cont="0"/>
        <request index="6" response="00000000" foes="00001111" cont="0"/>
        <request index="7" response="00000000" foes="00001111" cont="0"/>
    </junction>
    <junction id="gneJ6" type="dead_end" x="236.67" y="100.00" incLanes="gneE4_0 gneE4_1 gneE4_2 gneE4_3" intLanes="" shape="236.66,95.20 236.68,104.80" customShape="1"/>
    <junction id="gneJ8" type="dead_end" x="39.23" y="75.98" incLanes="" intLanes="" shape="38.46,77.82 40.00,74.14"/>

    <connection from="gneE3" to="gneE4" fromLane="0" toLane="0" via=":gneJ5_4_0" dir="s" state="M"/>
    <connection from="gneE3" to="gneE4" fromLane="1" toLane="1" via=":gneJ5_4_1" dir="s" state="M"/>
    <connection from="gneE3" to="gneE4" fromLane="2" toLane="2" via=":gneJ5_4_2" dir="s" state="M"/>
    <connection from="gneE3" to="gneE4" fromLane="3" toLane="3" via=":gneJ5_4_3" dir="s" state="M"/>
    <connection from="gneE6" to="gneE4" fromLane="0" toLane="0" via=":gneJ5_0_0" dir="s" state="m"/>
    <connection from="gneE6" to="gneE4" fromLane="0" toLane="1" via=":gneJ5_0_1" dir="s" state="m"/>
    <connection from="gneE6" to="gneE4" fromLane="0" toLane="2" via=":gneJ5_0_2" dir="s" state="m"/>
    <connection from="gneE6" to="gneE4" fromLane="0" toLane="3" via=":gneJ5_0_3" dir="s" state="m"/>

    <connection from=":gneJ5_0" to="gneE4" fromLane="0" toLane="0" dir="s" state="M"/>
    <connection from=":gneJ5_0" to="gneE4" fromLane="1" toLane="1" dir="s" state="M"/>
    <connection from=":gneJ5_0" to="gneE4" fromLane="2" toLane="2" dir="s" state="M"/>
    <connection from=":gneJ5_0" to="gneE4" fromLane="3" toLane="3" dir="s" state="M"/>
    <connection from=":gneJ5_4" to="gneE4" fromLane="0" toLane="0" dir="s" state="M"/>
    <connection from=":gneJ5_4" to="gneE4" fromLane="1" toLane="1" dir="s" state="M"/>
    <connection from=":gneJ5_4" to="gneE4" fromLane="2" toLane="2" dir="s" state="M"/>
    <connection from=":gneJ5_4" to="gneE4" fromLane="3" toLane="3" dir="s" state="M"/>

</net>
