<?xml version="1.0" encoding="UTF-8"?>

<!-- generated on 2022-07-11 16:34:37 by Eclipse SUMO netedit Version 1.10.0
<configuration xmlns:xsi="http://www.w3.org/2001/XMLSchema-instance" xsi:noNamespaceSchemaLocation="http://sumo.dlr.de/xsd/netconvertConfiguration.xsd">

    <input>
        <sumo-net-file value="scenarios/eval_scenarios/straight/single_agent/cut_in/3lane_curve/map.net.xml"/>
    </input>

    <output>
        <output-file value="scenarios/eval_scenarios/straight/single_agent/cut_in/3lane_curve/map.net.xml"/>
    </output>

    <processing>
        <geometry.min-radius.fix.railways value="false"/>
        <geometry.max-grade.fix value="false"/>
        <offset.disable-normalization value="true"/>
        <lefthand value="false"/>
    </processing>

    <junctions>
        <no-internal-links value="true"/>
        <no-turnarounds value="true"/>
        <junctions.corner-detail value="5"/>
        <junctions.limit-turn-speed value="5.5"/>
        <rectangular-lane-cut value="false"/>
    </junctions>

    <pedestrian>
        <walkingareas value="false"/>
    </pedestrian>

    <report>
        <aggregate-warnings value="5"/>
    </report>

</configuration>
-->

<net version="1.9" junctionCornerDetail="5" limitTurnSpeed="5.50" xmlns:xsi="http://www.w3.org/2001/XMLSchema-instance" xsi:noNamespaceSchemaLocation="http://sumo.dlr.de/xsd/net_file.xsd">

    <location netOffset="0.00,0.00" convBoundary="0.00,99.93,174.95,170.33" origBoundary="-10000000000.00,-10000000000.00,10000000000.00,10000000000.00" projParameter="!"/>

    <edge id="gneE3" from="gneJ4" to="gneJ6" priority="-1" spreadType="center" shape="0.00,100.00 2.29,99.96 4.58,99.94 6.85,99.93 9.10,99.93 11.35,99.95 13.59,99.98 15.81,100.02 18.02,100.08 20.22,100.15 22.41,100.24 24.58,100.34 26.74,100.45 28.90,100.58 31.04,100.72 33.16,100.88 35.28,101.05 37.38,101.23 39.48,101.43 41.56,101.64 43.62,101.86 45.68,102.10 47.72,102.36 49.76,102.62 51.78,102.90 53.79,103.20 55.78,103.51 57.77,103.83 61.70,104.52 65.59,105.26 69.43,106.05 73.22,106.91 76.97,107.82 80.66,108.78 84.31,109.80 87.92,110.87 91.47,112.00 94.98,113.19 98.44,114.43 101.85,115.73 105.21,117.08 108.53,118.49 111.80,119.95 115.02,121.47 118.20,123.05 121.32,124.68 124.40,126.36 127.43,128.10 130.42,129.90 133.36,131.75 136.24,133.66 139.09,135.62 141.88,137.64 144.63,139.72 147.33,141.85 149.98,144.03 152.58,146.27 155.14,148.57 157.65,150.92 160.11,153.33 162.52,155.79 164.89,158.31 167.21,160.88 169.48,163.51 171.70,166.20 174.95,170.33">
        <lane id="gneE3_0" index="0" speed="13.89" length="196.14" shape="-0.06,96.80 2.25,96.76 4.56,96.74 6.84,96.73 9.11,96.73 11.39,96.75 13.64,96.78 15.88,96.82 18.11,96.88 20.34,96.95 22.55,97.04 24.74,97.14 26.92,97.25 29.10,97.39 31.26,97.53 33.41,97.69 35.54,97.86 37.67,98.04 39.79,98.25 41.89,98.46 43.98,98.68 46.07,98.92 48.12,99.19 50.18,99.45 52.24,99.73 54.27,100.04 56.28,100.35 58.31,100.68 62.28,101.37 66.21,102.12 70.11,102.92 73.95,103.79 77.75,104.72 81.49,105.69 85.20,106.72 88.86,107.81 92.47,108.96 96.03,110.17 99.55,111.43 103.02,112.75 106.43,114.12 109.81,115.56 113.14,117.04 116.41,118.59 119.65,120.20 122.83,121.86 125.96,123.57 129.05,125.34 132.10,127.17 135.10,129.06 138.03,131.01 140.94,133.01 143.78,135.07 146.59,137.19 149.34,139.36 152.04,141.58 154.69,143.87 157.30,146.21 159.86,148.61 162.37,151.07 164.83,153.57 167.24,156.14 169.61,158.76 171.93,161.45 174.19,164.19 177.46,168.35"/>
        <lane id="gneE3_1" index="1" speed="13.89" length="196.14" shape="0.00,100.00 2.29,99.96 4.58,99.94 6.85,99.93 9.10,99.93 11.35,99.95 13.59,99.98 15.81,100.02 18.02,100.08 20.22,100.15 22.41,100.24 24.58,100.34 26.74,100.45 28.90,100.58 31.04,100.72 33.16,100.88 35.28,101.05 37.38,101.23 39.48,101.43 41.56,101.64 43.62,101.86 45.68,102.10 47.72,102.36 49.76,102.62 51.78,102.90 53.79,103.20 55.78,103.51 57.77,103.83 61.70,104.52 65.59,105.26 69.43,106.05 73.22,106.91 76.97,107.82 80.66,108.78 84.31,109.80 87.92,110.87 91.47,112.00 94.98,113.19 98.44,114.43 101.85,115.73 105.21,117.08 108.53,118.49 111.80,119.95 115.02,121.47 118.20,123.05 121.32,124.68 124.40,126.36 127.43,128.10 130.42,129.90 133.36,131.75 136.24,133.66 139.09,135.62 141.88,137.64 144.63,139.72 147.33,141.85 149.98,144.03 152.58,146.27 155.14,148.57 157.65,150.92 160.11,153.33 162.52,155.79 164.89,158.31 167.21,160.88 169.48,163.51 171.70,166.20 174.95,170.33"/>
        <lane id="gneE3_2" index="2" speed="13.89" length="196.14" shape="0.06,103.20 2.33,103.16 4.60,103.14 6.86,103.13 9.09,103.13 11.31,103.15 13.54,103.18 15.74,103.22 17.93,103.28 20.10,103.35 22.27,103.44 24.42,103.54 26.56,103.65 28.70,103.77 30.82,103.91 32.91,104.07 35.02,104.24 37.09,104.42 39.17,104.61 41.23,104.82 43.26,105.04 45.29,105.28 47.32,105.53 49.34,105.79 51.32,106.07 53.31,106.36 55.28,106.67 57.23,106.98 61.12,107.67 64.97,108.40 68.75,109.18 72.49,110.03 76.19,110.92 79.83,111.87 83.42,112.88 86.98,113.93 90.47,115.04 93.93,116.21 97.33,117.43 100.68,118.71 103.99,120.04 107.25,121.42 110.46,122.86 113.63,124.35 116.75,125.90 119.81,127.50 122.84,129.15 125.81,130.86 128.74,132.63 131.62,134.44 134.45,136.31 137.24,138.23 139.98,140.21 142.67,142.25 145.32,144.34 147.92,146.48 150.47,148.67 152.98,150.93 155.44,153.23 157.85,155.59 160.21,158.01 162.54,160.48 164.81,163.00 167.03,165.57 169.21,168.21 172.44,172.31"/>
    </edge>

    <junction id="gneJ4" type="dead_end" x="0.00" y="100.00" incLanes="" intLanes="" shape="0.08,104.80 -0.08,95.20"/>
    <junction id="gneJ6" type="dead_end" x="174.95" y="170.33" incLanes="gneE3_0 gneE3_1 gneE3_2" intLanes="" shape="178.72,167.36 171.18,173.30"/>

</net>
